7
charge=0, multiplicity=1, basis=def2-QZVPPD, AUX_BASIS_CORR=rimp2-def2-QZVPPD, SCF_ALGORITHM=GDM, xc_grid=000099000590, mem_total=3750, num_basis=294, num_pairs=42177, num_threads=1
O  0.0000000000  -0.0578029888  -1.3727439614
H  0.0000000000  0.8229965612  -1.7483656714
H  0.0000000000  0.0795583912  -0.4122934614
N  0.0000000000  0.0142423693  1.2738134728
H  0.0000000000  -0.9811701407  1.4627149828
H  -0.8134835100  0.3986461893  1.7386076828
H  0.8134835100  0.3986461893  1.7386076828