7
charge=0, multiplicity=1, basis=def2-QZVPPD, AUX_BASIS_CORR=rimp2-def2-QZVPPD, SCF_ALGORITHM=GDM, xc_grid=000099000590, mem_total=3750, num_basis=294, num_pairs=33974, num_threads=1
O  0.0000000000  -0.0584480102  -2.4149805269
H  0.0000000000  0.8223515398  -2.7906022369
H  0.0000000000  0.0789133698  -1.4545300269
N  0.0000000000  0.0148873907  2.3160500383
H  0.0000000000  -0.9805251193  2.5049515483
H  -0.8134835100  0.3992912107  2.7808442483
H  0.8134835100  0.3992912107  2.7808442483