7
charge=0, multiplicity=1, basis=def2-QZVPPD, AUX_BASIS_CORR=rimp2-def2-QZVPPD, SCF_ALGORITHM=GDM, xc_grid=000099000590, mem_total=3750, num_basis=294, num_pairs=35812, num_threads=1
O  0.0000000000  -0.0582637184  -2.1171986511
H  0.0000000000  0.8225358316  -2.4928203611
H  0.0000000000  0.0790976616  -1.1567481510
N  0.0000000000  0.0147030989  2.0182681624
H  0.0000000000  -0.9807094111  2.2071696724
H  -0.8134835100  0.3991069189  2.4830623724
H  0.8134835100  0.3991069189  2.4830623724