3
charge=0, multiplicity=1, basis=def2-QZVPPD, AUX_BASIS_CORR=rimp2-def2-QZVPPD, SCF_ALGORITHM=GDM, xc_grid=000099000590, mem_total=3750, num_basis=132, num_pairs=9017, num_threads=1
O  4.4229450000  -0.0260010000  -0.0071960000
H  4.4465750000  -0.9551280000  0.3209490000
H  4.4455320000  -0.0841100000  -0.9919620000