3
charge=0, multiplicity=1, basis=def2-QZVPPD, AUX_BASIS_CORR=rimp2-def2-QZVPPD, SCF_ALGORITHM=GDM, xc_grid=000099000590, mem_total=3750, num_basis=132, num_pairs=9017, num_threads=1
O  -0.0173660000  -2.5850190000  0.9192690000
H  -0.0399680000  -1.6549020000  0.5953420000
H  0.0355740000  -2.5259850000  1.9025740000