3
charge=0, multiplicity=1, basis=def2-QZVPPD, AUX_BASIS_CORR=rimp2-def2-QZVPPD, SCF_ALGORITHM=GDM, xc_grid=000099000590, mem_total=3750, num_basis=132, num_pairs=9017, num_threads=1
O  -0.0144430000  -1.6147190000  -0.0099380000
H  -0.0270390000  -2.1010170000  0.8206090000
H  0.8103700000  -1.0917220000  -0.0268180000