3
charge=0, multiplicity=1, basis=def2-QZVPPD, AUX_BASIS_CORR=rimp2-def2-QZVPPD, SCF_ALGORITHM=GDM, xc_grid=000099000590, mem_total=3750, num_basis=132, num_pairs=9017, num_threads=1
O  1.6020830000  0.6798710000  0.0311680000
H  2.0645620000  1.0657460000  -0.7194430000
H  0.7192980000  1.0976550000  0.0539300000