3
charge=0, multiplicity=1, basis=def2-QZVPPD, AUX_BASIS_CORR=rimp2-def2-QZVPPD, SCF_ALGORITHM=GDM, xc_grid=000099000590, mem_total=3750, num_basis=132, num_pairs=9017, num_threads=1
O  -1.2061080000  0.8933120000  0.0660930000
H  -1.8720430000  1.1479490000  -0.5796180000
H  -1.0705810000  -0.0725760000  -0.0240840000