4
charge=0, multiplicity=1, basis=def2-QZVPPD, AUX_BASIS_CORR=rimp2-def2-QZVPPD, SCF_ALGORITHM=GDM, xc_grid=000099000590, mem_total=3750, num_basis=195, num_pairs=19475, num_threads=1
O  9.2399550000  15.4081120000  7.3124850000
C  8.8953800000  15.3127460000  6.1548370000
H  8.2180330000  14.5119740000  5.8237610000
H  9.2440630000  16.0118600000  5.3836980000