4
charge=0, multiplicity=1, basis=def2-QZVPPD, AUX_BASIS_CORR=rimp2-def2-QZVPPD, SCF_ALGORITHM=GDM, xc_grid=000099000590, mem_total=3750, num_basis=195, num_pairs=19475, num_threads=1
O  10.8151880000  9.2399550000  1.6355150000
C  10.9105540000  8.8953800000  2.7931630000
H  11.7113260000  8.2180330000  3.1242390000
H  10.2114400000  9.2440630000  3.5643020000