6
charge=0, multiplicity=1, basis=def2-QZVPPD, AUX_BASIS_CORR=rimp2-def2-QZVPPD, SCF_ALGORITHM=GDM, xc_grid=000099000590, mem_total=3750, num_basis=318, num_pairs=32199, num_threads=1
H  0.0000000000  0.0000000000  6.0831208649
C  0.0000000000  0.0000000000  5.0144075649
N  0.0000000000  0.0000000000  3.8594157149
H  0.0000000000  0.0000000000  -2.8213758328
C  0.0000000000  0.0000000000  -3.8956991528
N  0.0000000000  0.0000000000  -5.0528514728