6
charge=0, multiplicity=1, basis=def2-QZVPPD, AUX_BASIS_CORR=rimp2-def2-QZVPPD, SCF_ALGORITHM=GDM, xc_grid=000099000590, mem_total=3750, num_basis=318, num_pairs=41924, num_threads=1
H  0.0000000000  0.0000000000  4.0781419420
C  0.0000000000  0.0000000000  3.0094286420
N  0.0000000000  0.0000000000  1.8544367919
H  0.0000000000  0.0000000000  -0.8163969098
C  0.0000000000  0.0000000000  -1.8907202298
N  0.0000000000  0.0000000000  -3.0478725498