6
charge=0, multiplicity=1, basis=def2-QZVPPD, AUX_BASIS_CORR=rimp2-def2-QZVPPD, SCF_ALGORITHM=GDM, xc_grid=000099000590, mem_total=3750, num_basis=318, num_pairs=37131, num_threads=1
H  0.0000000000  0.0000000000  4.7464682496
C  0.0000000000  0.0000000000  3.6777549496
N  0.0000000000  0.0000000000  2.5227630996
H  0.0000000000  0.0000000000  -1.4847232175
C  0.0000000000  0.0000000000  -2.5590465375
N  0.0000000000  0.0000000000  -3.7161988575