6
charge=0, multiplicity=1, basis=def2-QZVPPD, AUX_BASIS_CORR=rimp2-def2-QZVPPD, SCF_ALGORITHM=GDM, xc_grid=000099000590, mem_total=3750, num_basis=318, num_pairs=43533, num_threads=1
H  0.0000000000  0.0000000000  3.8553665061
C  0.0000000000  0.0000000000  2.7866532061
N  0.0000000000  0.0000000000  1.6316613561
H  0.0000000000  0.0000000000  -0.5936214739
C  0.0000000000  0.0000000000  -1.6679447939
N  0.0000000000  0.0000000000  -2.8250971139