6
charge=0, multiplicity=1, basis=def2-QZVPPD, AUX_BASIS_CORR=rimp2-def2-QZVPPD, SCF_ALGORITHM=GDM, xc_grid=000099000590, mem_total=3750, num_basis=318, num_pairs=45028, num_threads=1
H  0.0000000000  0.0000000000  3.6325910702
C  0.0000000000  0.0000000000  2.5638777702
N  0.0000000000  0.0000000000  1.4088859202
H  0.0000000000  0.0000000000  -0.3708460380
C  0.0000000000  0.0000000000  -1.4451693581
N  0.0000000000  0.0000000000  -2.6023216781