6
charge=0, multiplicity=1, basis=def2-QZVPPD, AUX_BASIS_CORR=rimp2-def2-QZVPPD, SCF_ALGORITHM=GDM, xc_grid=000099000590, mem_total=3750, num_basis=318, num_pairs=40343, num_threads=1
H  0.0000000000  0.0000000000  4.3009173778
C  0.0000000000  0.0000000000  3.2322040778
N  0.0000000000  0.0000000000  2.0772122278
H  0.0000000000  0.0000000000  -1.0391723457
C  0.0000000000  0.0000000000  -2.1134956657
N  0.0000000000  0.0000000000  -3.2706479857