4
charge=0, multiplicity=1, basis=def2-QZVPPD, AUX_BASIS_CORR=rimp2-def2-QZVPPD, SCF_ALGORITHM=GDM, xc_grid=000099000590, mem_total=3750, num_basis=192, num_pairs=18800, num_threads=1
C  5.3442910000  11.2318900000  17.3498900000
H  4.6932310000  10.6041300000  17.9226990000
C  6.0789820000  11.9508570000  16.7306090000
H  6.7196800000  12.6020950000  16.1820230000