6
charge=0, multiplicity=1, basis=def2-QZVPPD, AUX_BASIS_CORR=rimp2-def2-QZVPPD, SCF_ALGORITHM=GDM, xc_grid=000099000590, mem_total=3750, num_basis=261, num_pairs=34660, num_threads=1
O  0.9290230000  6.1896920000  13.2378020000
H  1.7832260000  5.6924130000  13.2567600000
C  1.1433960000  7.4447740000  12.5784990000
H  1.7713110000  8.0925020000  13.1947530000
H  0.1738810000  7.9215010000  12.4465860000
H  1.6119020000  7.3167060000  11.6007350000