4
charge=0, multiplicity=1, basis=def2-QZVPPD, AUX_BASIS_CORR=rimp2-def2-QZVPPD, SCF_ALGORITHM=GDM, xc_grid=000099000590, mem_total=3750, num_basis=198, num_pairs=18206, num_threads=1
H  0.0000000000  0.8020390495  1.9669431916
F  0.0000000000  -0.0466074305  1.6119980816
H  0.0000000000  -0.1197631787  -0.7624713789
F  0.0000000000  0.0104141413  -1.6758927589