4
charge=0, multiplicity=1, basis=def2-QZVPPD, AUX_BASIS_CORR=rimp2-def2-QZVPPD, SCF_ALGORITHM=GDM, xc_grid=000099000590, mem_total=3750, num_basis=198, num_pairs=18561, num_threads=1
H  0.0000000000  0.8023604150  1.8311199715
F  0.0000000000  -0.0462860650  1.4761748615
H  0.0000000000  -0.1200845441  -0.6266481588
F  0.0000000000  0.0100927759  -1.5400695388