4
charge=0, multiplicity=1, basis=def2-QZVPPD, AUX_BASIS_CORR=rimp2-def2-QZVPPD, SCF_ALGORITHM=GDM, xc_grid=000099000590, mem_total=3750, num_basis=198, num_pairs=14312, num_threads=1
H  0.0000000000  0.7994681259  3.0535289528
F  0.0000000000  -0.0491783541  2.6985838428
H  0.0000000000  -0.1171922551  -1.8490571401
F  0.0000000000  0.0129850649  -2.7624785201