4
charge=0, multiplicity=1, basis=def2-QZVPPD, AUX_BASIS_CORR=rimp2-def2-QZVPPD, SCF_ALGORITHM=GDM, xc_grid=000099000590, mem_total=3750, num_basis=198, num_pairs=19004, num_threads=1
H  0.0000000000  0.8026817804  1.6952967513
F  0.0000000000  -0.0459646996  1.3403516413
H  0.0000000000  -0.1204059096  -0.4908249387
F  0.0000000000  0.0097714104  -1.4042463187