6
charge=0, multiplicity=1, basis=def2-QZVPPD, AUX_BASIS_CORR=rimp2-def2-QZVPPD, SCF_ALGORITHM=GDM, xc_grid=000099000590, mem_total=3750, num_basis=288, num_pairs=41619, num_threads=1
C  6.7740620000  3.7602860000  9.7936220000
C  7.5044770000  2.9005370000  10.7082550000
N  8.0780590000  2.2229760000  11.4425980000
H  6.1480580000  3.1553360000  9.1361980000
H  7.4701620000  4.3476220000  9.1942020000
H  6.1440040000  4.4395010000  10.3677690000