6
charge=0, multiplicity=1, basis=def2-QZVPPD, AUX_BASIS_CORR=rimp2-def2-QZVPPD, SCF_ALGORITHM=GDM, xc_grid=000099000590, mem_total=3750, num_basis=288, num_pairs=41619, num_threads=1
C  7.4943340000  0.3747140000  5.8691720000
C  8.2247490000  1.2344630000  6.7838050000
N  8.7983300000  1.9120240000  7.5181480000
H  6.8683300000  0.9796640000  5.2117480000
H  8.1904340000  -0.2126220000  5.2697520000
H  6.8642750000  -0.3045010000  6.4433190000