6
charge=0, multiplicity=1, basis=def2-QZVPPD, AUX_BASIS_CORR=rimp2-def2-QZVPPD, SCF_ALGORITHM=GDM, xc_grid=000099000590, mem_total=3750, num_basis=288, num_pairs=41626, num_threads=1
N  0.0000000000  8.2306240000  11.1149120000
C  0.0000000000  10.1960030000  12.8229210000
C  0.0000000000  9.0969770000  11.8746670000
H  0.0000000000  11.1430660000  12.2832930000
H  -0.8892580000  10.1407010000  13.4504110000
H  0.8892580000  10.1407010000  13.4504110000