8
charge=0, multiplicity=1, basis=def2-QZVPPD, AUX_BASIS_CORR=rimp2-def2-QZVPPD, SCF_ALGORITHM=GDM, xc_grid=000099000590, mem_total=3750, num_basis=324, num_pairs=35443, num_threads=1
N  -0.0374709805  -3.2001119110  0.0000000000
H  0.1354729595  -3.7814788610  0.8110597600
H  0.1354729595  -3.7814788610  -0.8110597600
H  0.6723961095  -2.4753716610  0.0000000000
N  0.0374709805  3.2001119110  0.0000000000
H  -0.1354729595  3.7814788610  0.8110597600
H  -0.6723961095  2.4753716610  0.0000000000
H  -0.1354729595  3.7814788610  -0.8110597600