8
charge=0, multiplicity=1, basis=def2-QZVPPD, AUX_BASIS_CORR=rimp2-def2-QZVPPD, SCF_ALGORITHM=GDM, xc_grid=000099000590, mem_total=3750, num_basis=324, num_pairs=46843, num_threads=1
N  -0.0487302591  -1.7483950981  0.0000000000
H  0.1242136809  -2.3297620481  0.8110597600
H  0.1242136809  -2.3297620481  -0.8110597600
H  0.6611368309  -1.0236548481  0.0000000000
N  0.0487302591  1.7483950981  0.0000000000
H  -0.1242136809  2.3297620481  0.8110597600
H  -0.6611368309  1.0236548481  0.0000000000
H  -0.1242136809  2.3297620481  -0.8110597600