8
charge=0, multiplicity=1, basis=def2-QZVPPD, AUX_BASIS_CORR=rimp2-def2-QZVPPD, SCF_ALGORITHM=GDM, xc_grid=000099000590, mem_total=3750, num_basis=324, num_pairs=45232, num_threads=1
N  -0.0474792281  -1.9096969662  0.0000000000
H  0.1254647119  -2.4910639162  0.8110597600
H  0.1254647119  -2.4910639162  -0.8110597600
H  0.6623878619  -1.1849567162  0.0000000000
N  0.0474792281  1.9096969662  0.0000000000
H  -0.1254647119  2.4910639162  0.8110597600
H  -0.6623878619  1.1849567162  0.0000000000
H  -0.1254647119  2.4910639162  -0.8110597600