8
charge=0, multiplicity=1, basis=def2-QZVPPD, AUX_BASIS_CORR=rimp2-def2-QZVPPD, SCF_ALGORITHM=GDM, xc_grid=000099000590, mem_total=3750, num_basis=324, num_pairs=42057, num_threads=1
N  -0.0449771662  -2.2323007024  0.0000000000
H  0.1279667738  -2.8136676524  0.8110597600
H  0.1279667738  -2.8136676524  -0.8110597600
H  0.6648899238  -1.5075604524  0.0000000000
N  0.0449771662  2.2323007024  0.0000000000
H  -0.1279667738  2.8136676524  0.8110597600
H  -0.6648899238  1.5075604524  0.0000000000
H  -0.1279667738  2.8136676524  -0.8110597600