7
charge=0, multiplicity=1, basis=def2-QZVPPD, AUX_BASIS_CORR=rimp2-def2-QZVPPD, SCF_ALGORITHM=GDM, xc_grid=000099000590, mem_total=3750, num_basis=294, num_pairs=34684, num_threads=1
C  0.0000000000  0.0000000000  2.5535003986
H  0.5159337800  -0.8936235200  2.2030349186
H  0.0000000000  0.0000000000  3.6408428986
H  0.5159337800  0.8936235200  2.2030349186
H  -1.0318675600  0.0000000000  2.2030349186
H  0.0000000000  0.0000000000  -1.6828091113
F  0.0000000000  0.0000000000  -2.6020683913