7
charge=0, multiplicity=1, basis=def2-QZVPPD, AUX_BASIS_CORR=rimp2-def2-QZVPPD, SCF_ALGORITHM=GDM, xc_grid=000099000590, mem_total=3750, num_basis=294, num_pairs=39391, num_threads=1
C  0.0000000000  0.0000000000  1.9145603520
H  0.5159337800  -0.8936235200  1.5640948720
H  0.0000000000  0.0000000000  3.0019028520
H  0.5159337800  0.8936235200  1.5640948720
H  -1.0318675600  0.0000000000  1.5640948720
H  0.0000000000  0.0000000000  -1.0438690647
F  0.0000000000  0.0000000000  -1.9631283447