7
charge=0, multiplicity=1, basis=def2-QZVPPD, AUX_BASIS_CORR=rimp2-def2-QZVPPD, SCF_ALGORITHM=GDM, xc_grid=000099000590, mem_total=3750, num_basis=294, num_pairs=42494, num_threads=1
C  0.0000000000  0.0000000000  1.4353553170
H  0.5159337800  -0.8936235200  1.0848898370
H  0.0000000000  0.0000000000  2.5226978170
H  0.5159337800  0.8936235200  1.0848898370
H  -1.0318675600  0.0000000000  1.0848898370
H  0.0000000000  0.0000000000  -0.5646640297
F  0.0000000000  0.0000000000  -1.4839233097