9
charge=0, multiplicity=1, basis=def2-QZVPPD, AUX_BASIS_CORR=rimp2-def2-QZVPPD, SCF_ALGORITHM=GDM, xc_grid=000099000590, mem_total=3750, num_basis=357, num_pairs=54330, num_threads=1
N  -0.0000000003  0.0000000000  1.9073340031
H  0.9373097897  0.0000000000  2.2910648232
H  -0.4686548903  -0.8117340900  2.2910648232
H  -0.4686548903  0.8117340900  2.2910648232
H  -0.0000000003  0.0000000000  -0.8859743269
C  -0.0000000003  0.0000000000  -1.9746401068
H  0.5125143897  0.8877009600  -2.3419538369
H  0.5125143897  -0.8877009600  -2.3419538369
H  -1.0250287803  0.0000000000  -2.3419538369