9
charge=0, multiplicity=1, basis=def2-QZVPPD, AUX_BASIS_CORR=rimp2-def2-QZVPPD, SCF_ALGORITHM=GDM, xc_grid=000099000590, mem_total=3750, num_basis=357, num_pairs=50138, num_threads=1
N  -0.0000000002  0.0000000000  2.3024289391
H  0.9373097898  0.0000000000  2.6861597591
H  -0.4686548902  -0.8117340900  2.6861597591
H  -0.4686548902  0.8117340900  2.6861597591
H  -0.0000000004  0.0000000000  -1.2810692628
C  -0.0000000004  0.0000000000  -2.3697350428
H  0.5125143896  0.8877009600  -2.7370487728
H  0.5125143896  -0.8877009600  -2.7370487728
H  -1.0250287804  0.0000000000  -2.7370487728