9
charge=0, multiplicity=1, basis=def2-QZVPPD, AUX_BASIS_CORR=rimp2-def2-QZVPPD, SCF_ALGORITHM=GDM, xc_grid=000099000590, mem_total=3750, num_basis=357, num_pairs=52005, num_threads=1
N  -0.0000000003  0.0000000000  2.1048814711
H  0.9373097897  0.0000000000  2.4886122911
H  -0.4686548903  -0.8117340900  2.4886122911
H  -0.4686548903  0.8117340900  2.4886122911
H  -0.0000000003  0.0000000000  -1.0835217948
C  -0.0000000003  0.0000000000  -2.1721875748
H  0.5125143897  0.8877009600  -2.5395013048
H  0.5125143897  -0.8877009600  -2.5395013048
H  -1.0250287803  0.0000000000  -2.5395013048