8
charge=0, multiplicity=1, basis=def2-QZVPPD, AUX_BASIS_CORR=rimp2-def2-QZVPPD, SCF_ALGORITHM=GDM, xc_grid=000099000590, mem_total=3750, num_basis=456, num_pairs=98435, num_threads=1
C  -1.5997140000  6.0251050000  4.8975910000
H  -0.0991270000  5.3786730000  5.8506280000
O  -0.9679310000  6.6446500000  4.0614930000
O  -1.0982970000  5.3407790000  5.8883040000
C  -3.1372430000  6.0048950000  4.8881960000
O  -3.7690260000  5.3853500000  5.7242940000
O  -3.6386600000  6.6892210000  3.8974830000
H  -4.6378300000  6.6513270000  3.9351580000