8
charge=0, multiplicity=1, basis=def2-QZVPPD, AUX_BASIS_CORR=rimp2-def2-QZVPPD, SCF_ALGORITHM=GDM, xc_grid=000099000590, mem_total=3750, num_basis=456, num_pairs=98435, num_threads=1
C  -4.3214820000  3.0176050000  7.3346430000
H  -5.8220690000  2.3711730000  6.3816050000
O  -4.9532650000  3.6371500000  8.1707410000
O  -4.8228990000  2.3332790000  6.3439300000
C  -2.7839540000  2.9973950000  7.3440370000
O  -2.1521700000  2.3778500000  6.5079400000
O  -2.2825370000  3.6817210000  8.3347500000
H  -1.2833660000  3.6438270000  8.2970750000