8
charge=0, multiplicity=1, basis=def2-QZVPPD, AUX_BASIS_CORR=rimp2-def2-QZVPPD, SCF_ALGORITHM=GDM, xc_grid=000099000590, mem_total=3750, num_basis=456, num_pairs=98403, num_threads=1
O  -1.0619670000  -1.3936980000  11.7183720000
O  -0.2192810000  -0.2726460000  13.4810000000
C  -0.3936300000  -0.5081790000  12.2087540000
H  -0.6885400000  -0.9147090000  14.0734640000
O  1.0619670000  1.3936980000  11.8388280000
O  0.2192810000  0.2726460000  10.0762000000
C  0.3936300000  0.5081790000  11.3484460000
H  0.6885400000  0.9147090000  9.4837360000