8
charge=0, multiplicity=1, basis=def2-QZVPPD, AUX_BASIS_CORR=rimp2-def2-QZVPPD, SCF_ALGORITHM=GDM, xc_grid=000099000590, mem_total=3750, num_basis=456, num_pairs=98403, num_threads=1
O  17.4604670000  7.4876980000  15.6445720000
O  16.6177810000  6.3666460000  17.4072000000
C  16.7921300000  6.6021790000  16.1349540000
H  17.0870400000  7.0087090000  17.9996640000
O  15.3365330000  4.7003020000  15.7650280000
O  16.1792190000  5.8213540000  14.0024000000
C  16.0048700000  5.5858210000  15.2746460000
H  15.7099600000  5.1792910000  13.4099360000