8
charge=0, multiplicity=1, basis=def2-QZVPPD, AUX_BASIS_CORR=rimp2-def2-QZVPPD, SCF_ALGORITHM=GDM, xc_grid=000099000590, mem_total=3750, num_basis=327, num_pairs=37909, num_threads=1
O  -0.0051502511  0.0000000000  2.9601124293
H  0.0316997489  0.7575500000  3.5458624293
H  0.0316997489  -0.7575500000  3.5458624293
C  0.0010393899  0.0000000000  -3.0249674954
H  -0.5070706101  0.8875900000  -3.3980174954
H  1.0308793899  0.0000000000  -3.3779374954
H  -0.0127906101  0.0000000000  -1.9370174954
H  -0.5070706101  -0.8875900000  -3.3980174954