8
charge=0, multiplicity=1, basis=def2-QZVPPD, AUX_BASIS_CORR=rimp2-def2-QZVPPD, SCF_ALGORITHM=GDM, xc_grid=000099000590, mem_total=3750, num_basis=390, num_pairs=74080, num_threads=1
C  0.0000000000  0.6009180025  -1.2084643858
O  0.0000000000  -0.5933399375  -1.4067148358
H  0.9354225000  1.1739544425  -1.1197759458
H  -0.9354225000  1.1739544425  -1.1197759458
C  0.0000000000  -0.6016832601  1.4069594981
O  0.0000000000  0.5927078799  1.2097841181
H  0.0000000000  -1.0090583201  2.4299171881
H  0.0000000000  -1.3197075601  0.5716208081