8
charge=0, multiplicity=1, basis=def2-QZVPPD, AUX_BASIS_CORR=rimp2-def2-QZVPPD, SCF_ALGORITHM=GDM, xc_grid=000099000590, mem_total=3750, num_basis=390, num_pairs=64807, num_threads=1
C  0.0000000000  0.6025262460  -1.9352257261
O  0.0000000000  -0.5917316940  -2.1334761761
H  0.9354225000  1.1755626860  -1.8465372861
H  -0.9354225000  1.1755626860  -1.8465372861
C  0.0000000000  -0.6032915037  2.1337208383
O  0.0000000000  0.5910996363  1.9365454583
H  0.0000000000  -1.0106665637  3.1566785283
H  0.0000000000  -1.3213158037  1.2983821483