9
charge=0, multiplicity=1, basis=def2-QZVPPD, AUX_BASIS_CORR=rimp2-def2-QZVPPD, SCF_ALGORITHM=GDM, xc_grid=000099000590, mem_total=3750, num_basis=420, num_pairs=86792, num_threads=1
C  -1.2452160000  8.5142140000  17.6612240000
C  -1.9294490000  9.8606360000  17.6887690000
O  -1.3992080000  10.8558730000  17.1514310000
N  -3.0876130000  9.9366720000  18.3431670000
H  -3.5109780000  10.8427360000  18.5536940000
H  -3.4941430000  9.0993140000  18.7659390000
H  -0.6376910000  8.4291210000  18.5644370000
H  -1.9513990000  7.6865760000  17.6531020000
H  -0.5895400000  8.4431210000  16.7984480000