9
charge=0, multiplicity=1, basis=def2-QZVPPD, AUX_BASIS_CORR=rimp2-def2-QZVPPD, SCF_ALGORITHM=GDM, xc_grid=000099000590, mem_total=3750, num_basis=390, num_pairs=62922, num_threads=1
C  0.0190376728  -0.6680624600  2.3240364895
C  0.0190376728  0.6680624600  2.3240364895
H  0.8770815828  1.2326793300  1.9800965495
H  -0.8376334272  1.2325849500  2.6710822494
H  -0.8376334272  -1.2325849500  2.6710822494
H  0.8770815828  -1.2326793300  1.9800965495
H  -0.7993419258  0.0000000000  -2.8114304491
O  0.0409887942  0.0000000000  -2.3506606091
H  -0.1931611158  0.0000000000  -1.4180895091