9
charge=0, multiplicity=1, basis=def2-QZVPPD, AUX_BASIS_CORR=rimp2-def2-QZVPPD, SCF_ALGORITHM=GDM, xc_grid=000099000590, mem_total=3750, num_basis=390, num_pairs=69204, num_threads=1
C  0.0149370183  -0.6680624600  1.8259808137
C  0.0149370183  0.6680624600  1.8259808137
H  0.8729809283  1.2326793300  1.4820408737
H  -0.8417340817  1.2325849500  2.1730265737
H  -0.8417340817  -1.2325849500  2.1730265737
H  0.8729809283  -1.2326793300  1.4820408737
H  -0.7952412714  0.0000000000  -2.3133747734
O  0.0450894486  0.0000000000  -1.8526049334
H  -0.1890604614  0.0000000000  -0.9200338334