24
charge=0, multiplicity=1, basis=def2-QZVPPD, AUX_BASIS_CORR=rimp2-def2-QZVPPD, SCF_ALGORITHM=GDM, xc_grid=000099000590, mem_total=30000, num_basis=1152, num_pairs=551806, num_threads=8
C  3.2000000000  0.0000000000  -0.3915000000
C  3.2000000000  1.2050740000  0.3042500000
C  3.2000000000  1.2050740000  1.6957500000
C  3.2000000000  0.0000000000  2.3915000000
C  3.2000000000  -1.2050740000  1.6957500000
C  3.2000000000  -1.2050740000  0.3042500000
H  3.2000000000  0.0000000000  -1.4715000000
H  3.2000000000  2.1403820000  -0.2357500000
H  3.2000000000  2.1403820000  2.2357500000
H  3.2000000000  0.0000000000  3.4715000000
H  3.2000000000  -2.1403820000  2.2357500000
H  3.2000000000  -2.1403820000  -0.2357500000
C  0.0000000000  -2.2000000000  2.3915000000
C  0.0000000000  -0.9949260000  1.6957500000
C  0.0000000000  -0.9949260000  0.3042500000
C  0.0000000000  -2.2000000000  -0.3915000000
C  0.0000000000  -3.4050740000  0.3042500000
C  0.0000000000  -3.4050740000  1.6957500000
H  0.0000000000  -2.2000000000  3.4715000000
H  0.0000000000  -0.0596180000  2.2357500000
H  0.0000000000  -0.0596180000  -0.2357500000
H  0.0000000000  -2.2000000000  -1.4715000000
H  0.0000000000  -4.3403820000  -0.2357500000
H  0.0000000000  -4.3403820000  2.2357500000