5
charge=0, multiplicity=1, basis=def2-QZVPPD, AUX_BASIS_CORR=rimp2-def2-QZVPPD, SCF_ALGORITHM=GDM, xc_grid=000099000590, mem_total=3750, num_basis=195, num_pairs=19452, num_threads=1
C  13.0320000000  29.0790000000  6.9860000000
H  12.3080000000  29.2510000000  7.7900000000
H  13.4720000000  28.0810000000  7.0800000000
H  13.8270000000  29.8410000000  7.0350000000
H  12.5077200000  29.1674600000  6.0230300000