12
charge=0, multiplicity=1, basis=def2-QZVPPD, mem_total=3750, AUX_BASIS_CORR=rimp2-def2-QZVPPD, SCF_ALGORITHM=GDM, xc_grid=000099000590, num_basis=576, num_pairs=159036, num_threads=1
C  1.3915000000  0.0000000000  1.0000000000
C  0.6957500000  1.2050743494  1.0000000000
C  -0.6957500000  1.2050743494  1.0000000000
C  -1.3915000000  0.0000000000  1.0000000000
C  -0.6957500000  -1.2050743494  1.0000000000
C  0.6957500000  -1.2050743494  1.0000000000
H  2.4715000000  0.0000000000  1.0000000000
H  1.2357500000  2.1403817855  1.0000000000
H  -1.2357500000  2.1403817855  1.0000000000
H  -2.4715000000  0.0000000000  1.0000000000
H  -1.2357500000  -2.1403817855  1.0000000000
H  1.2357500000  -2.1403817855  1.0000000000