3
charge=0, multiplicity=1, basis=def2-QZVPPD, AUX_BASIS_CORR=rimp2-def2-QZVPPD, SCF_ALGORITHM=GDM, xc_grid=000099000590, mem_total=3750, num_basis=132, num_pairs=9017, num_threads=1
H  1.1433430000  1.9803280000  0.4684390000
H  1.7538260000  3.0377170000  1.3702870000
O  1.6242800000  2.8133350000  0.4445530000