3
charge=-1, multiplicity=1, basis=def2-QZVPPD, AUX_BASIS_CORR=rimp2-def2-QZVPPD, SCF_ALGORITHM=GDM, xc_grid=000099000590, mem_total=3750, num_basis=224, num_pairs=23511, num_threads=1
Cl  -2.1719431932  0.0000000000  0.0000000000
Cl  0.1445805245  0.0000000000  0.0000000000
F  2.0273626686  0.0000000000  0.0000000000