6
charge=0, multiplicity=1, basis=def2-QZVPPD, AUX_BASIS_CORR=rimp2-def2-QZVPPD, SCF_ALGORITHM=GDM, xc_grid=000099000590, mem_total=3750, num_basis=274, num_pairs=36560, num_threads=1
Cl  0.0000000000  0.0000000004  1.2111084889
H  0.0000000000  -0.0000000005  -0.1088333184
N  0.0000000000  0.0000000000  -1.9016555878
H  0.0000000000  0.9407197431  -2.2764242049
H  0.8146870799  -0.4703598713  -2.2764241889
H  -0.8146870799  -0.4703598713  -2.2764241889