10
charge=0, multiplicity=1, basis=def2-QZVPPD, AUX_BASIS_CORR=rimp2-def2-QZVPPD, SCF_ALGORITHM=GDM, xc_grid=000099000590, mem_total=3750, num_basis=453, num_pairs=89153, num_threads=1
O  0.0000000000  -0.5072461105  -2.0756915968
C  0.0000000000  0.6976838895  -1.9843215968
H  0.0000000000  1.2005538895  -1.0036815968
H  0.0000000000  1.3422938895  -2.8790915968
C  0.0000000000  -0.6035406608  1.5993140232
C  0.0000000000  0.4157393392  2.4614640232
H  0.9211300000  -1.0351406608  1.2284240232
H  -0.9211300000  -1.0351406608  1.2284240232
H  -0.9239400000  0.8456793392  2.8288340232
H  0.9239400000  0.8456793392  2.8288340232