3
charge=0, multiplicity=1, basis=def2-QZVPPD, AUX_BASIS_CORR=rimp2-def2-QZVPPD, SCF_ALGORITHM=GDM, xc_grid=000099000590, mem_total=3750, num_basis=132, num_pairs=9017, num_threads=1
O  -1.6566220000  3.1083690000  0.5991320000
H  -2.5339160000  2.9297190000  0.2604980000
H  -1.0696560000  2.8751390000  -0.1201090000