3
charge=0, multiplicity=1, basis=def2-QZVPPD, AUX_BASIS_CORR=rimp2-def2-QZVPPD, SCF_ALGORITHM=GDM, xc_grid=000099000590, mem_total=3750, num_basis=132, num_pairs=9017, num_threads=1
O  2.6617340000  -2.1961340000  -0.8997250000
H  2.3376090000  -1.4458290000  -1.4408290000
H  2.5897300000  -1.8232910000  0.0123850000