3
charge=0, multiplicity=1, basis=def2-QZVPPD, AUX_BASIS_CORR=rimp2-def2-QZVPPD, SCF_ALGORITHM=GDM, xc_grid=000099000590, mem_total=3750, num_basis=132, num_pairs=9017, num_threads=1
O  -1.9396920000  -1.5448950000  -1.2272560000
H  -2.3442050000  -0.7446480000  -1.5622270000
H  -2.3385490000  -1.6733290000  -0.3666450000