3
charge=0, multiplicity=1, basis=def2-QZVPPD, AUX_BASIS_CORR=rimp2-def2-QZVPPD, SCF_ALGORITHM=GDM, xc_grid=000099000590, mem_total=3750, num_basis=132, num_pairs=9017, num_threads=1
O  -2.6229520000  0.9128740000  -2.1815380000
H  -1.7986140000  1.3463560000  -1.9606450000
H  -3.2748750000  1.3392020000  -1.6252350000