3
charge=0, multiplicity=1, basis=def2-QZVPPD, AUX_BASIS_CORR=rimp2-def2-QZVPPD, SCF_ALGORITHM=GDM, xc_grid=000099000590, mem_total=3750, num_basis=132, num_pairs=9017, num_threads=1
O  2.1787250000  -4.1266910000  0.4154240000
H  2.9176180000  -4.6176500000  0.7749080000
H  1.6981510000  -3.8192720000  1.1840430000