3
charge=0, multiplicity=1, basis=def2-QZVPPD, AUX_BASIS_CORR=rimp2-def2-QZVPPD, SCF_ALGORITHM=GDM, xc_grid=000099000590, mem_total=3750, num_basis=132, num_pairs=9017, num_threads=1
O  2.2902560000  1.6015690000  -0.1159610000
H  1.4482210000  2.0636380000  0.0191030000
H  2.0853310000  1.0171770000  -0.8897880000