3
charge=0, multiplicity=1, basis=def2-QZVPPD, AUX_BASIS_CORR=rimp2-def2-QZVPPD, SCF_ALGORITHM=GDM, xc_grid=000099000590, mem_total=3750, num_basis=132, num_pairs=9017, num_threads=1
O  -1.7621630000  -4.5110570000  1.5861630000
H  -1.2938360000  -4.7709310000  0.7928350000
H  -2.1664160000  -5.3192470000  1.9018220000