3
charge=0, multiplicity=1, basis=def2-QZVPPD, AUX_BASIS_CORR=rimp2-def2-QZVPPD, SCF_ALGORITHM=GDM, xc_grid=000099000590, mem_total=3750, num_basis=132, num_pairs=9017, num_threads=1
O  -0.4423020000  -3.3371030000  -2.6304760000
H  -1.0733520000  -2.7666830000  -2.1915800000
H  -0.4293590000  -3.0284220000  -3.5364460000