3
charge=0, multiplicity=1, basis=def2-QZVPPD, AUX_BASIS_CORR=rimp2-def2-QZVPPD, SCF_ALGORITHM=GDM, xc_grid=000099000590, mem_total=3750, num_basis=132, num_pairs=9017, num_threads=1
O  -0.2965060000  -0.7605640000  2.2337120000
H  0.0689250000  -0.5803480000  1.3675630000
H  -0.6085980000  0.0894280000  2.5441090000