3
charge=0, multiplicity=1, basis=def2-QZVPPD, AUX_BASIS_CORR=rimp2-def2-QZVPPD, SCF_ALGORITHM=GDM, xc_grid=000099000590, mem_total=3750, num_basis=132, num_pairs=9017, num_threads=1
O  -3.8843570000  0.5286100000  1.9075480000
H  -3.1406200000  0.9051820000  2.3779530000
H  -3.6439000000  -0.3880510000  1.7728460000