3
charge=0, multiplicity=1, basis=def2-QZVPPD, AUX_BASIS_CORR=rimp2-def2-QZVPPD, SCF_ALGORITHM=GDM, xc_grid=000099000590, mem_total=3750, num_basis=132, num_pairs=9017, num_threads=1
O  -0.2238790000  -5.1518490000  -0.5385800000
H  0.6659290000  -4.9228880000  -0.2701540000
H  -0.3544660000  -4.6820080000  -1.3622480000