3
charge=0, multiplicity=1, basis=def2-QZVPPD, AUX_BASIS_CORR=rimp2-def2-QZVPPD, SCF_ALGORITHM=GDM, xc_grid=000099000590, mem_total=3750, num_basis=132, num_pairs=9017, num_threads=1
O  -1.4425610000  0.3426030000  -4.6517010000
H  -0.6903750000  0.9182560000  -4.5135990000
H  -2.0278850000  0.5324750000  -3.9185050000