3
charge=0, multiplicity=1, basis=def2-QZVPPD, AUX_BASIS_CORR=rimp2-def2-QZVPPD, SCF_ALGORITHM=GDM, xc_grid=000099000590, mem_total=3750, num_basis=132, num_pairs=9017, num_threads=1
O  -0.2135630000  1.9620400000  -1.4809150000
H  0.1327600000  1.1741100000  -1.0620360000
H  0.2407510000  2.0059810000  -2.3222840000