3
charge=0, multiplicity=1, basis=def2-QZVPPD, AUX_BASIS_CORR=rimp2-def2-QZVPPD, SCF_ALGORITHM=GDM, xc_grid=000099000590, mem_total=3750, num_basis=132, num_pairs=9017, num_threads=1
O  -0.0238020000  1.4905000000  -5.1386070000
H  0.9182070000  1.7190830000  -5.1565970000
H  -0.3014500000  1.7590350000  -4.2177670000