3
charge=0, multiplicity=1, basis=def2-QZVPPD, AUX_BASIS_CORR=rimp2-def2-QZVPPD, SCF_ALGORITHM=GDM, xc_grid=000099000590, mem_total=3750, num_basis=178, num_pairs=14905, num_threads=1
Ar  0.0000000000  3.4258932400  0.0000000000
F  0.0000000000  -0.0469946800  0.0000000000
H  0.0000000000  0.8858918200  0.0000000000