5
charge=0, multiplicity=1, basis=def2-QZVPPD, AUX_BASIS_CORR=rimp2-def2-QZVPPD, SCF_ALGORITHM=GDM, xc_grid=000099000590, mem_total=3750, num_basis=355, num_pairs=50557, num_threads=1
Br  0.0000000000  0.0000000000  1.9341280000
Br  0.0000000000  0.0000000000  -0.3717300000
N  0.0000000000  0.0000000000  -3.2520560000
C  0.0000000000  0.0000000000  -4.4074290000
H  0.0000000000  0.0000000000  -5.4749770000