3
charge=-1, multiplicity=1, basis=def2-QZVPPD, AUX_BASIS_CORR=rimp2-def2-QZVPPD, SCF_ALGORITHM=GDM, xc_grid=000099000590, mem_total=3750, num_basis=243, num_pairs=26923, num_threads=1
Br  -2.2674841976  0.0000000000  0.0000000000
Cl  0.1844323608  0.0000000000  0.0000000000
F  2.0830518368  0.0000000000  0.0000000000