9
charge=0, multiplicity=1, basis=def2-QZVPPD, AUX_BASIS_CORR=rimp2-def2-QZVPPD, SCF_ALGORITHM=GDM, xc_grid=000099000590, mem_total=3750, num_basis=403, num_pairs=79428, num_threads=1
S  0.0000000000  0.0000000000  -1.6398620000
C  0.0000000000  -1.3574440000  -2.8229620000
C  0.0000000000  1.3574440000  -2.8229620000
H  -0.8897120000  1.3302590000  -3.4497800000
H  0.0000000000  2.2842550000  -2.2540480000
H  0.8897120000  1.3302590000  -3.4497800000
H  0.8897120000  -1.3302590000  -3.4497800000
H  0.0000000000  -2.2842550000  -2.2540480000
H  -0.8897120000  -1.3302590000  -3.4497800000