12
charge=0, multiplicity=1, basis=def2-QZVPPD, AUX_BASIS_CORR=rimp2-def2-QZVPPD, SCF_ALGORITHM=GDM, xc_grid=000099000590, mem_total=3750, num_basis=576, num_pairs=163833, num_threads=1
C  0.0000000000  0.8768010000  0.7781350000
C  -0.7593320000  -0.4384010000  0.7781350000
C  0.7593320000  -0.4384010000  0.7781350000
C  0.0000000000  0.8768010000  -0.7781350000
C  -0.7593320000  -0.4384010000  -0.7781350000
C  0.7593320000  -0.4384010000  -0.7781350000
H  0.0000000000  1.6695330000  -1.5101340000
H  0.0000000000  1.6695330000  1.5101340000
H  1.4458580000  -0.8347670000  1.5101340000
H  1.4458580000  -0.8347670000  -1.5101340000
H  -1.4458580000  -0.8347670000  -1.5101340000
H  -1.4458580000  -0.8347670000  1.5101340000