3
charge=0, multiplicity=1, basis=def2-QZVPPD, AUX_BASIS_CORR=rimp2-def2-QZVPPD, SCF_ALGORITHM=GDM, xc_grid=000099000590, mem_total=3750, num_basis=132, num_pairs=9017, num_threads=1
O  0.0004860000  -1.8040340000  0.0000000000
H  -0.0047270000  -2.3948730000  -0.7586310000
H  -0.0047270000  -2.3948730000  0.7586310000