5
charge=0, multiplicity=1, basis=def2-QZVPPD, AUX_BASIS_CORR=rimp2-def2-QZVPPD, SCF_ALGORITHM=GDM, xc_grid=000099000590, mem_total=3750, num_basis=195, num_pairs=19452, num_threads=1
C  0.0004860000  1.9211570000  0.0000000000
H  0.5123550000  2.2867260000  0.8858380000
H  0.5123550000  2.2867260000  -0.8858380000
H  -1.0226020000  2.2866030000  0.0000000000
H  0.0005420000  0.8350220000  0.0000000000