4
charge=0, multiplicity=1, basis=def2-QZVPPD, AUX_BASIS_CORR=rimp2-def2-QZVPPD, SCF_ALGORITHM=GDM, xc_grid=000099000590, mem_total=3750, num_basis=261, num_pairs=34291, num_threads=1
N  -0.0006650000  -0.9260680000  0.0000000000
F  -0.7703600000  -0.5514820000  -1.0638390000
F  -0.7703600000  -0.5514820000  1.0638390000
F  0.9789070000  0.0438810000  0.0000000000