5
charge=-1, multiplicity=1, basis=def2-QZVPPD, AUX_BASIS_CORR=rimp2-def2-QZVPPD, SCF_ALGORITHM=GDM, xc_grid=000099000590, mem_total=3750, num_basis=258, num_pairs=31458, num_threads=1
H  0.7140760193  -2.1841293213  0.0000000000
O  -0.2329411248  -2.0366761605  0.0000000000
H  -0.2806598667  -1.0454263671  0.0000000000
C  -0.0983084938  0.8729199829  0.0000000000
N  0.0815329460  2.0369178661  0.0000000000