8
charge=0, multiplicity=1, basis=def2-QZVPPD, AUX_BASIS_CORR=rimp2-def2-QZVPPD, SCF_ALGORITHM=GDM, xc_grid=000099000590, mem_total=3750, num_basis=384, num_pairs=51522, num_threads=1
C  0.0000000000  0.6035640000  -3.4908939330
H  0.0000000000  1.6684758100  -3.4934556530
C  0.0000000000  -0.6035640000  -3.4908939330
H  0.0000000000  -1.6684758100  -3.4934556530
C  0.0000000000  0.0000000000  2.8874548852
H  0.0000000000  0.0000000000  1.8205216852
C  0.0000000000  0.0000000000  4.0949251852
H  0.0000000000  0.0000000000  5.1593383452