8
charge=0, multiplicity=1, basis=def2-QZVPPD, AUX_BASIS_CORR=rimp2-def2-QZVPPD, SCF_ALGORITHM=GDM, xc_grid=000099000590, mem_total=3750, num_basis=384, num_pairs=61536, num_threads=1
C  0.0000000000  0.6035640000  -2.3999275546
H  0.0000000000  1.6684758100  -2.4024892746
C  0.0000000000  -0.6035640000  -2.3999275546
H  0.0000000000  -1.6684758100  -2.4024892746
C  0.0000000000  0.0000000000  1.7964885068
H  0.0000000000  0.0000000000  0.7295553068
C  0.0000000000  0.0000000000  3.0039588068
H  0.0000000000  0.0000000000  4.0683719668