8
charge=0, multiplicity=1, basis=def2-QZVPPD, AUX_BASIS_CORR=rimp2-def2-QZVPPD, SCF_ALGORITHM=GDM, xc_grid=000099000590, mem_total=3750, num_basis=384, num_pairs=47432, num_threads=1
C  0.0000000000  0.6035640000  -4.3636670357
H  0.0000000000  1.6684758100  -4.3662287557
C  0.0000000000  -0.6035640000  -4.3636670357
H  0.0000000000  -1.6684758100  -4.3662287557
C  0.0000000000  0.0000000000  3.7602279879
H  0.0000000000  0.0000000000  2.6932947879
C  0.0000000000  0.0000000000  4.9676982879
H  0.0000000000  0.0000000000  6.0321114479