8
charge=0, multiplicity=1, basis=def2-QZVPPD, AUX_BASIS_CORR=rimp2-def2-QZVPPD, SCF_ALGORITHM=GDM, xc_grid=000099000590, mem_total=3750, num_basis=384, num_pairs=54612, num_threads=1
C  0.0000000000  0.6035640000  -3.0545073816
H  0.0000000000  1.6684758100  -3.0570691016
C  0.0000000000  -0.6035640000  -3.0545073816
H  0.0000000000  -1.6684758100  -3.0570691016
C  0.0000000000  0.0000000000  2.4510683338
H  0.0000000000  0.0000000000  1.3841351338
C  0.0000000000  0.0000000000  3.6585386338
H  0.0000000000  0.0000000000  4.7229517938