8
charge=0, multiplicity=1, basis=def2-QZVPPD, mem_total=3750, AUX_BASIS_CORR=rimp2-def2-QZVPPD, SCF_ALGORITHM=GDM, xc_grid=000099000590, num_basis=384, num_pairs=59208, num_threads=1
C  0.0000000000  0.6035640000  -2.6181208303
H  0.0000000000  1.6684758100  -2.6206825503
C  0.0000000000  -0.6035640000  -2.6181208303
H  0.0000000000  -1.6684758100  -2.6206825503
C  0.0000000000  0.0000000000  2.0146817824
H  0.0000000000  0.0000000000  0.9477485824
C  0.0000000000  0.0000000000  3.2221520824
H  0.0000000000  0.0000000000  4.2865652424