8
charge=0, multiplicity=1, basis=def2-QZVPPD, AUX_BASIS_CORR=rimp2-def2-QZVPPD, SCF_ALGORITHM=GDM, xc_grid=000099000590, mem_total=3750, num_basis=384, num_pairs=64034, num_threads=1
C  0.0000000000  0.6035640000  -2.1817342789
H  0.0000000000  1.6684758100  -2.1842959989
C  0.0000000000  -0.6035640000  -2.1817342789
H  0.0000000000  -1.6684758100  -2.1842959989
C  0.0000000000  0.0000000000  1.5782952311
H  0.0000000000  0.0000000000  0.5113620311
C  0.0000000000  0.0000000000  2.7857655311
H  0.0000000000  0.0000000000  3.8501786911