3
charge=0, multiplicity=1, basis=def2-QZVPPD, AUX_BASIS_CORR=rimp2-def2-QZVPPD, SCF_ALGORITHM=GDM, xc_grid=000099000590, mem_total=3750, num_basis=132, num_pairs=9017, num_threads=1
O  -1.3570348600  -1.1305993400  -0.2063212000
H  -1.4949758200  -1.2830894400  0.7332137900
H  -1.0319691700  -0.1934204400  -0.2027285200