3
charge=0, multiplicity=1, basis=def2-QZVPPD, AUX_BASIS_CORR=rimp2-def2-QZVPPD, SCF_ALGORITHM=GDM, xc_grid=000099000590, mem_total=3750, num_basis=132, num_pairs=9017, num_threads=1
O  1.6854274100  -1.0156927300  -0.1079447000
H  0.8250808300  -1.4262341100  -0.2682645300
H  1.3999500000  -0.0874850500  0.0079674100