3
charge=0, multiplicity=1, basis=def2-QZVPPD, AUX_BASIS_CORR=rimp2-def2-QZVPPD, SCF_ALGORITHM=GDM, xc_grid=000099000590, mem_total=3750, num_basis=132, num_pairs=9017, num_threads=1
O  1.9247264500  -0.5086526100  0.0528858800
H  1.5683020700  -1.1720697400  -0.5428613500
H  1.1801050400  0.1854666300  0.0541952100