3
charge=0, multiplicity=1, basis=def2-QZVPPD, AUX_BASIS_CORR=rimp2-def2-QZVPPD, SCF_ALGORITHM=GDM, xc_grid=000099000590, mem_total=3750, num_basis=132, num_pairs=9017, num_threads=1
O  -1.9125275900  -0.5156242600  -0.0686774100
H  -1.6632671800  -1.0789497900  0.6677608600
H  -1.1636330900  0.1772045900  -0.0639461100