3
charge=0, multiplicity=1, basis=def2-QZVPPD, AUX_BASIS_CORR=rimp2-def2-QZVPPD, SCF_ALGORITHM=GDM, xc_grid=000099000590, mem_total=3750, num_basis=132, num_pairs=9017, num_threads=1
O  2.0116880000  -0.8188400000  1.3692750000
H  1.0734020000  -0.9024360000  1.0935180000
H  2.2518110000  0.0650070000  1.0091270000