3
charge=0, multiplicity=1, basis=def2-QZVPPD, AUX_BASIS_CORR=rimp2-def2-QZVPPD, SCF_ALGORITHM=GDM, xc_grid=000099000590, mem_total=3750, num_basis=132, num_pairs=9017, num_threads=1
O  -0.3586550000  4.0017760000  -3.4089300000
H  -0.0728490000  4.7682620000  -2.9118920000
H  -0.8781660000  4.3618970000  -4.1277160000