3
charge=0, multiplicity=1, basis=def2-QZVPPD, AUX_BASIS_CORR=rimp2-def2-QZVPPD, SCF_ALGORITHM=GDM, xc_grid=000099000590, mem_total=3750, num_basis=132, num_pairs=9017, num_threads=1
O  -1.8781550000  4.8838150000  -0.2233490000
H  -2.0516920000  4.0475680000  -0.6555640000
H  -1.2004580000  5.2951390000  -0.7597920000