3
charge=0, multiplicity=1, basis=def2-QZVPPD, AUX_BASIS_CORR=rimp2-def2-QZVPPD, SCF_ALGORITHM=GDM, xc_grid=000099000590, mem_total=3750, num_basis=132, num_pairs=9017, num_threads=1
O  0.0695040000  -1.0027740000  -4.0959900000
H  0.6813920000  -0.7135800000  -3.3722780000
H  -0.0035280000  -0.2049330000  -4.6725200000