3
charge=0, multiplicity=1, basis=def2-QZVPPD, AUX_BASIS_CORR=rimp2-def2-QZVPPD, SCF_ALGORITHM=GDM, xc_grid=000099000590, mem_total=3750, num_basis=132, num_pairs=9017, num_threads=1
O  -4.0290170000  3.7941820000  -3.5885650000
H  -3.4797400000  3.3207970000  -2.9637170000
H  -3.4205380000  4.0940990000  -4.2638690000