3
charge=0, multiplicity=1, basis=def2-QZVPPD, AUX_BASIS_CORR=rimp2-def2-QZVPPD, SCF_ALGORITHM=GDM, xc_grid=000099000590, mem_total=3750, num_basis=132, num_pairs=9017, num_threads=1
O  1.3498140000  7.1467780000  0.4743170000
H  0.9987850000  8.0249930000  0.6217930000
H  2.1096730000  7.0916150000  1.0538030000