3
charge=0, multiplicity=1, basis=def2-QZVPPD, AUX_BASIS_CORR=rimp2-def2-QZVPPD, SCF_ALGORITHM=GDM, xc_grid=000099000590, mem_total=3750, num_basis=132, num_pairs=9017, num_threads=1
O  0.2083780000  -3.5457600000  -0.8255940000
H  -0.2148200000  -3.5834960000  -1.7144420000
H  1.1445030000  -3.2612120000  -0.9774460000