3
charge=0, multiplicity=1, basis=def2-QZVPPD, AUX_BASIS_CORR=rimp2-def2-QZVPPD, SCF_ALGORITHM=GDM, xc_grid=000099000590, mem_total=3750, num_basis=132, num_pairs=9017, num_threads=1
O  -3.6817210000  6.9033900000  -0.6021510000
H  -3.1663130000  6.1245140000  -0.3925310000
H  -4.2964030000  6.6105040000  -1.2749190000