3
charge=0, multiplicity=1, basis=def2-QZVPPD, AUX_BASIS_CORR=rimp2-def2-QZVPPD, SCF_ALGORITHM=GDM, xc_grid=000099000590, mem_total=3750, num_basis=132, num_pairs=9017, num_threads=1
O  0.1801940000  9.4903600000  1.2174730000
H  -0.3378180000  9.9517960000  0.5579480000
H  -0.4691420000  9.0882390000  1.7944440000