3
charge=0, multiplicity=1, basis=def2-QZVPPD, AUX_BASIS_CORR=rimp2-def2-QZVPPD, SCF_ALGORITHM=GDM, xc_grid=000099000590, mem_total=3750, num_basis=132, num_pairs=9017, num_threads=1
O  -1.5561510000  8.1601020000  2.8362510000
H  -1.1320340000  8.2838230000  3.6853980000
H  -1.3140540000  7.2718650000  2.5742240000