3
charge=0, multiplicity=1, basis=def2-QZVPPD, AUX_BASIS_CORR=rimp2-def2-QZVPPD, SCF_ALGORITHM=GDM, xc_grid=000099000590, mem_total=3750, num_basis=132, num_pairs=9017, num_threads=1
O  -0.0136370000  6.1787880000  -1.7260720000
H  -0.5363510000  6.9482860000  -1.9516280000
H  0.6182160000  6.4982850000  -1.0819310000