3
charge=0, multiplicity=1, basis=def2-QZVPPD, AUX_BASIS_CORR=rimp2-def2-QZVPPD, SCF_ALGORITHM=GDM, xc_grid=000099000590, mem_total=3750, num_basis=132, num_pairs=9017, num_threads=1
O  2.6550750000  -2.2249490000  -0.9922210000
H  2.3342680000  -1.4628960000  -1.5186640000
H  2.5962480000  -1.8654220000  -0.0738300000