3
charge=0, multiplicity=1, basis=def2-QZVPPD, AUX_BASIS_CORR=rimp2-def2-QZVPPD, SCF_ALGORITHM=GDM, xc_grid=000099000590, mem_total=3750, num_basis=132, num_pairs=9017, num_threads=1
O  -0.4874260000  5.8024780000  1.9730750000
H  0.1852630000  6.2068780000  1.4251870000
H  -1.0386820000  5.3184130000  1.3582340000