3
charge=0, multiplicity=1, basis=def2-QZVPPD, AUX_BASIS_CORR=rimp2-def2-QZVPPD, SCF_ALGORITHM=GDM, xc_grid=000099000590, mem_total=3750, num_basis=132, num_pairs=9017, num_threads=1
O  1.2512680000  5.9906900000  4.1369120000
H  0.5924080000  5.7061900000  3.5035110000
H  0.8474390000  6.7332300000  4.5861220000