3
charge=0, multiplicity=1, basis=def2-QZVPPD, AUX_BASIS_CORR=rimp2-def2-QZVPPD, SCF_ALGORITHM=GDM, xc_grid=000099000590, mem_total=3750, num_basis=132, num_pairs=9017, num_threads=1
O  -1.6908070000  10.4658730000  -0.5611500000
H  -2.0003430000  11.3547600000  -0.7352230000
H  -2.3645380000  10.0828470000  0.0006420000