3
charge=0, multiplicity=1, basis=def2-QZVPPD, AUX_BASIS_CORR=rimp2-def2-QZVPPD, SCF_ALGORITHM=GDM, xc_grid=000099000590, mem_total=3750, num_basis=132, num_pairs=9017, num_threads=1
O  -5.1539700000  6.0994590000  -2.7789370000
H  -4.8201400000  5.2381940000  -3.0299620000
H  -6.0989790000  6.0408560000  -2.9194930000