3
charge=0, multiplicity=1, basis=def2-QZVPPD, AUX_BASIS_CORR=rimp2-def2-QZVPPD, SCF_ALGORITHM=GDM, xc_grid=000099000590, mem_total=3750, num_basis=132, num_pairs=9017, num_threads=1
O  -1.8279620000  8.1855330000  -2.1153000000
H  -2.5007490000  7.7722520000  -1.5742000000
H  -1.7001930000  9.0486700000  -1.7217240000