3
charge=0, multiplicity=1, basis=def2-QZVPPD, AUX_BASIS_CORR=rimp2-def2-QZVPPD, SCF_ALGORITHM=GDM, xc_grid=000099000590, mem_total=3750, num_basis=132, num_pairs=9017, num_threads=1
O  0.1719410000  8.4108780000  4.9825500000
H  0.8362330000  8.8805820000  4.4782420000
H  0.1709750000  8.8411920000  5.8375720000