3
charge=0, multiplicity=1, basis=def2-QZVPPD, AUX_BASIS_CORR=rimp2-def2-QZVPPD, SCF_ALGORITHM=GDM, xc_grid=000099000590, mem_total=3750, num_basis=132, num_pairs=9017, num_threads=1
O  -0.0410150000  1.5725370000  -5.1326970000
H  0.9024730000  1.7935340000  -5.1634870000
H  -0.3001380000  1.8255460000  -4.2019800000