3
charge=0, multiplicity=1, basis=def2-QZVPPD, AUX_BASIS_CORR=rimp2-def2-QZVPPD, SCF_ALGORITHM=GDM, xc_grid=000099000590, mem_total=3750, num_basis=132, num_pairs=9017, num_threads=1
O  -2.1159860000  -0.4911150000  -2.3400120000
H  -1.4140620000  -0.6517150000  -3.0126590000
H  -1.6523740000  -0.6804900000  -1.4853530000