10
charge=0, multiplicity=1, basis=def2-QZVPPD, AUX_BASIS_CORR=rimp2-def2-QZVPPD, SCF_ALGORITHM=GDM, xc_grid=000099000590, mem_total=3750, num_basis=420, num_pairs=59395, num_threads=1
N  0.0000000000  -0.0470539973  -3.7070305516
H  -0.8112300000  -0.5028739973  -4.1065005516
H  0.0000000000  -0.2655339973  -2.7173405516
H  0.8112300000  -0.5028739973  -4.1065005516
C  0.0000000000  -0.5257166314  3.8868992432
C  0.0000000000  0.7534833686  3.5046292432
H  0.9231200000  1.2951433686  3.3402992432
H  -0.9231200000  1.2951433686  3.3402992432
H  -0.9238900000  -1.0664866314  4.0508892432
H  0.9238900000  -1.0664866314  4.0508892432