15
charge=0, multiplicity=1, basis=def2-QZVPPD, AUX_BASIS_CORR=rimp2-def2-QZVPPD, SCF_ALGORITHM=GDM, xc_grid=000099000590, mem_total=7500, num_basis=708, num_pairs=225693, num_threads=2
C  1.3915000000  0.0000000000  1.0000000000
C  0.6957500000  1.2050743494  1.0000000000
C  -0.6957500000  1.2050743494  1.0000000000
C  -1.3915000000  0.0000000000  1.0000000000
C  -0.6957500000  -1.2050743494  1.0000000000
C  0.6957500000  -1.2050743494  1.0000000000
H  2.4715000000  0.0000000000  1.0000000000
H  1.2357500000  2.1403817855  1.0000000000
H  -1.2357500000  2.1403817855  1.0000000000
H  -2.4715000000  0.0000000000  1.0000000000
H  -1.2357500000  -2.1403817855  1.0000000000
H  1.2357500000  -2.1403817855  1.0000000000
O  0.0000000000  0.0000000000  4.7000000000
H  -0.8219464661  0.4745510135  4.5708413189
H  0.3141042223  -0.1813481573  3.8134741933