6
charge=0, multiplicity=1, basis=def2-QZVPPD, AUX_BASIS_CORR=rimp2-def2-QZVPPD, SCF_ALGORITHM=GDM, xc_grid=000099000590, mem_total=3750, num_basis=391, num_pairs=63280, num_threads=1
Br  -0.9276650000  -1.6749340000  0.0000000000
Br  0.0000000000  0.4398310000  0.0000000000
O  1.3621370000  2.8164610000  0.0000000000
C  2.5554380000  2.6111560000  0.0000000000
H  3.2763780000  3.4418500000  0.0000000000
H  2.9621550000  1.5881420000  0.0000000000