11
charge=0, multiplicity=1, basis=def2-QZVPPD, AUX_BASIS_CORR=rimp2-def2-QZVPPD, SCF_ALGORITHM=GDM, xc_grid=000099000590, mem_total=3750, num_basis=456, num_pairs=96437, num_threads=1
C  -1.0752470000  1.0229700000  0.0000000000
C  -1.2426790000  -0.4925420000  0.0000000000
H  -1.5396430000  1.4660740000  0.8794130000
H  -0.7893880000  -0.9409140000  0.8849590000
H  -0.0239280000  1.3054320000  0.0000000000
H  -0.7893880000  -0.9409140000  -0.8849590000
H  -1.5396430000  1.4660740000  -0.8794130000
H  -2.2935660000  -0.7778080000  0.0000000000
O  2.1532130000  -0.3642260000  0.0000000000
H  1.3035680000  -0.8161750000  0.0000000000
H  2.8005650000  -1.0752240000  0.0000000000