6
charge=0, multiplicity=1, basis=def2-QZVPPD, AUX_BASIS_CORR=rimp2-def2-QZVPPD, SCF_ALGORITHM=GDM, xc_grid=000099000590, mem_total=3750, num_basis=406, num_pairs=67484, num_threads=1
N  0.6227120000  1.5128000000  0.0000000000
F  0.6227120000  2.3670330000  1.0636750000
F  0.6227120000  2.3670330000  -1.0636750000
F  -0.6802840000  1.0557470000  0.0000000000
Cl  -0.4870520000  -1.8453030000  0.0000000000
F  -0.1294850000  -3.4808630000  0.0000000000