4
charge=0, multiplicity=1, basis=def2-QZVPPD, AUX_BASIS_CORR=rimp2-def2-QZVPPD, SCF_ALGORITHM=GDM, xc_grid=000099000590, mem_total=3750, num_basis=222, num_pairs=23559, num_threads=1
He  0.0000000000  0.0000000000  3.2148372000
C  0.0000000000  1.2774337800  -0.3571089700
C  0.0000000000  -1.2774337800  -0.3571089700
C  0.0000000000  0.0000000000  -0.3571089700