3
charge=0, multiplicity=1, basis=def2-QZVPPD, AUX_BASIS_CORR=rimp2-def2-QZVPPD, SCF_ALGORITHM=GDM, xc_grid=000099000590, mem_total=3750, num_basis=132, num_pairs=9017, num_threads=1
O  2.1532130000  -0.3642260000  0.0000000000
H  1.3035680000  -0.8161750000  0.0000000000
H  2.8005650000  -1.0752240000  0.0000000000