16
charge=0, multiplicity=1, basis=def2-QZVPPD, AUX_BASIS_CORR=rimp2-def2-QZVPPD, SCF_ALGORITHM=GDM, xc_grid=000099000590, mem_total=7500, num_basis=768, num_pairs=285708, num_threads=2
C  0.7832680000  0.7832680000  0.7832680000
C  -0.7832680000  0.7832680000  0.7832680000
C  -0.7832680000  0.7832680000  -0.7832680000
C  0.7832680000  0.7832680000  -0.7832680000
C  0.7832680000  -0.7832680000  0.7832680000
C  -0.7832680000  -0.7832680000  0.7832680000
C  -0.7832680000  -0.7832680000  -0.7832680000
C  0.7832680000  -0.7832680000  -0.7832680000
H  1.4102050000  -1.4102050000  1.4102050000
H  1.4102050000  1.4102050000  1.4102050000
H  -1.4102050000  1.4102050000  1.4102050000
H  -1.4102050000  -1.4102050000  1.4102050000
H  -1.4102050000  1.4102050000  -1.4102050000
H  -1.4102050000  -1.4102050000  -1.4102050000
H  1.4102050000  -1.4102050000  -1.4102050000
H  1.4102050000  1.4102050000  -1.4102050000