3
charge=0, multiplicity=1, basis=def2-QZVPPD, AUX_BASIS_CORR=rimp2-def2-QZVPPD, SCF_ALGORITHM=GDM, xc_grid=000099000590, mem_total=3750, num_basis=132, num_pairs=9017, num_threads=1
O  1.0621474100  -1.5092125900  0.4221789200
H  0.6806587000  -1.0568273100  -0.3794354000
H  1.3897541200  -0.7401858800  0.9019911700