3
charge=0, multiplicity=1, basis=def2-QZVPPD, AUX_BASIS_CORR=rimp2-def2-QZVPPD, SCF_ALGORITHM=GDM, xc_grid=000099000590, mem_total=3750, num_basis=132, num_pairs=9017, num_threads=1
O  0.7761311400  1.6744708800  0.4217885900
H  -0.0534595900  1.5737377400  0.9019757500
H  0.5747261000  1.1178605900  -0.3797042700