3
charge=0, multiplicity=1, basis=def2-QZVPPD, AUX_BASIS_CORR=rimp2-def2-QZVPPD, SCF_ALGORITHM=GDM, xc_grid=000099000590, mem_total=3750, num_basis=132, num_pairs=9017, num_threads=1
O  1.0464360700  -1.1566439500  -1.2859384600
H  0.1079504200  -1.0411100300  -1.0298084100
H  1.3257284500  -0.2285480900  -1.3034745200