3
charge=0, multiplicity=1, basis=def2-QZVPPD, AUX_BASIS_CORR=rimp2-def2-QZVPPD, SCF_ALGORITHM=GDM, xc_grid=000099000590, mem_total=3750, num_basis=132, num_pairs=9017, num_threads=1
O  -1.8379429000  -0.1650432100  0.4227003600
H  -1.3356932000  -0.8331275500  0.9026547100
H  -1.2555967100  -0.0611968100  -0.3790826900