3
charge=0, multiplicity=1, basis=def2-QZVPPD, AUX_BASIS_CORR=rimp2-def2-QZVPPD, SCF_ALGORITHM=GDM, xc_grid=000099000590, mem_total=3750, num_basis=132, num_pairs=9017, num_threads=1
O  11.9480890000  4.1665370000  17.8594090000
H  12.5567020000  4.9025620000  17.9233800000
H  12.2330080000  3.5594720000  18.5424360000