3
charge=0, multiplicity=1, basis=def2-QZVPPD, AUX_BASIS_CORR=rimp2-def2-QZVPPD, SCF_ALGORITHM=GDM, xc_grid=000099000590, mem_total=3750, num_basis=132, num_pairs=9017, num_threads=1
O  10.0076420000  1.2949210000  19.5915970000
H  9.3138470000  1.2217340000  20.2469790000
H  9.6993800000  1.9730630000  18.9904890000