3
charge=0, multiplicity=1, basis=def2-QZVPPD, AUX_BASIS_CORR=rimp2-def2-QZVPPD, SCF_ALGORITHM=GDM, xc_grid=000099000590, mem_total=3750, num_basis=132, num_pairs=9017, num_threads=1
O  2.9306170000  1.1574710000  -0.4378830000
H  3.5125240000  0.3883000000  -0.5693040000
H  2.1868590000  0.9282840000  -1.0472350000