3
charge=0, multiplicity=1, basis=def2-QZVPPD, AUX_BASIS_CORR=rimp2-def2-QZVPPD, SCF_ALGORITHM=GDM, xc_grid=000099000590, mem_total=3750, num_basis=132, num_pairs=9017, num_threads=1
O  2.8005110000  -1.8462440000  -0.8463720000
H  2.2112350000  -1.2682660000  -1.3724180000
H  2.5558930000  -1.6061620000  0.0815110000