3
charge=0, multiplicity=1, basis=def2-QZVPPD, AUX_BASIS_CORR=rimp2-def2-QZVPPD, SCF_ALGORITHM=GDM, xc_grid=000099000590, mem_total=3750, num_basis=132, num_pairs=9017, num_threads=1
O  12.5032460000  2.6207610000  15.7009360000
H  11.6425860000  2.2933610000  15.4395800000
H  12.3170970000  3.2712180000  16.3780530000