3
charge=0, multiplicity=1, basis=def2-QZVPPD, AUX_BASIS_CORR=rimp2-def2-QZVPPD, SCF_ALGORITHM=GDM, xc_grid=000099000590, mem_total=3750, num_basis=132, num_pairs=9017, num_threads=1
O  9.3772060000  3.1393810000  17.7407000000
H  9.4465390000  2.6784100000  16.9046790000
H  10.1484240000  3.7057340000  17.7671530000