3
charge=0, multiplicity=1, basis=def2-QZVPPD, AUX_BASIS_CORR=rimp2-def2-QZVPPD, SCF_ALGORITHM=GDM, xc_grid=000099000590, mem_total=3750, num_basis=132, num_pairs=9017, num_threads=1
O  12.6424340000  2.1275800000  19.5543830000
H  11.7569890000  1.8272060000  19.7593110000
H  12.9366060000  1.5465760000  18.8528630000