3
charge=0, multiplicity=1, basis=def2-QZVPPD, AUX_BASIS_CORR=rimp2-def2-QZVPPD, SCF_ALGORITHM=GDM, xc_grid=000099000590, mem_total=3750, num_basis=132, num_pairs=9017, num_threads=1
O  14.9466070000  2.8934960000  20.8256920000
H  15.5769320000  2.5359250000  20.2003410000
H  14.0952280000  2.5958690000  20.5050610000