3
charge=0, multiplicity=1, basis=def2-QZVPPD, AUX_BASIS_CORR=rimp2-def2-QZVPPD, SCF_ALGORITHM=GDM, xc_grid=000099000590, mem_total=3750, num_basis=132, num_pairs=9017, num_threads=1
O  17.3178800000  4.7917490000  18.5429240000
H  16.9988620000  5.0509420000  17.6784710000
H  16.6604100000  5.1277990000  19.1520520000