3
charge=0, multiplicity=1, basis=def2-QZVPPD, AUX_BASIS_CORR=rimp2-def2-QZVPPD, SCF_ALGORITHM=GDM, xc_grid=000099000590, mem_total=3750, num_basis=132, num_pairs=9017, num_threads=1
O  13.3055000000  0.6448310000  17.3724970000
H  13.0381530000  1.2996200000  16.7275100000
H  14.2490500000  0.5505830000  17.2418710000