3
charge=0, multiplicity=1, basis=def2-QZVPPD, AUX_BASIS_CORR=rimp2-def2-QZVPPD, SCF_ALGORITHM=GDM, xc_grid=000099000590, mem_total=3750, num_basis=132, num_pairs=9017, num_threads=1
O  19.1744360000  4.8364020000  20.6119140000
H  18.7287530000  4.9062550000  19.7676870000
H  19.1928600000  3.8973660000  20.7965910000