16
charge=0, multiplicity=1, basis=def2-QZVPPD, AUX_BASIS_CORR=rimp2-def2-QZVPPD, SCF_ALGORITHM=GDM, xc_grid=000099000590, mem_total=7500, num_basis=768, num_pairs=261458, num_threads=2
C  0.0000000000  0.0000000000  1.4421770000
C  0.0000000000  0.0000000000  -1.4421770000
C  0.0000000000  1.2357820000  0.6715020000
C  0.0000000000  -1.2357820000  0.6715020000
C  0.0000000000  1.2357820000  -0.6715020000
C  0.0000000000  -1.2357820000  -0.6715020000
C  0.0000000000  0.0000000000  2.7905520000
C  0.0000000000  0.0000000000  -2.7905520000
H  0.0000000000  2.1704090000  1.2183420000
H  0.0000000000  -2.1704090000  1.2183420000
H  0.0000000000  2.1704090000  -1.2183420000
H  0.0000000000  -2.1704090000  -1.2183420000
H  0.0000000000  0.9228700000  3.3540530000
H  0.0000000000  -0.9228700000  3.3540530000
H  0.0000000000  -0.9228700000  -3.3540530000
H  0.0000000000  0.9228700000  -3.3540530000