3
charge=0, multiplicity=1, basis=def2-QZVPPD, AUX_BASIS_CORR=rimp2-def2-QZVPPD, SCF_ALGORITHM=GDM, xc_grid=000099000590, mem_total=3750, num_basis=132, num_pairs=9017, num_threads=1
O  -1.0327480000  1.3313480000  -2.7207650000
H  -1.1901800000  2.0613440000  -2.1045740000
H  -0.1982970000  0.8737280000  -2.3855610000