3
charge=0, multiplicity=1, basis=def2-QZVPPD, AUX_BASIS_CORR=rimp2-def2-QZVPPD, SCF_ALGORITHM=GDM, xc_grid=000099000590, mem_total=3750, num_basis=132, num_pairs=9017, num_threads=1
O  0.4069540000  -3.5118460000  -0.8316840000
H  -0.0228600000  -3.4231950000  -1.7265650000
H  1.3274770000  -3.1956520000  -0.9501800000