3
charge=0, multiplicity=1, basis=def2-QZVPPD, AUX_BASIS_CORR=rimp2-def2-QZVPPD, SCF_ALGORITHM=GDM, xc_grid=000099000590, mem_total=3750, num_basis=132, num_pairs=9017, num_threads=1
O  0.7849170000  -1.1371760000  -4.3811620000
H  0.9660050000  -0.7262950000  -3.5061810000
H  0.2862690000  -0.4460300000  -4.8632230000