3
charge=0, multiplicity=1, basis=def2-QZVPPD, AUX_BASIS_CORR=rimp2-def2-QZVPPD, SCF_ALGORITHM=GDM, xc_grid=000099000590, mem_total=3750, num_basis=132, num_pairs=9017, num_threads=1
O  16.8157200000  3.1179850000  22.8615980000
H  16.0272440000  2.9735020000  22.3384690000
H  16.9375880000  4.0673720000  22.8548230000