3
charge=0, multiplicity=1, basis=def2-QZVPPD, AUX_BASIS_CORR=rimp2-def2-QZVPPD, SCF_ALGORITHM=GDM, xc_grid=000099000590, mem_total=3750, num_basis=132, num_pairs=9017, num_threads=1
O  -0.4423250000  -1.0899680000  0.0003880000
H  0.0704340000  -0.6436080000  -0.7171200000
H  -0.2205100000  -2.0534410000  -0.1686350000