3
charge=0, multiplicity=1, basis=def2-QZVPPD, AUX_BASIS_CORR=rimp2-def2-QZVPPD, SCF_ALGORITHM=GDM, xc_grid=000099000590, mem_total=3750, num_basis=132, num_pairs=9017, num_threads=1
O  -2.5410050000  -1.0013490000  -1.8624440000
H  -2.2014210000  -0.1855220000  -2.2819090000
H  -1.9864600000  -1.0611020000  -1.0502200000