9
charge=0, multiplicity=1, basis=def2-QZVPPD, AUX_BASIS_CORR=rimp2-def2-QZVPPD, SCF_ALGORITHM=GDM, xc_grid=000099000590, mem_total=3750, num_basis=477, num_pairs=111462, num_threads=1
C  -4.1734850000  7.2286880000  5.4607500000
N  -3.4557480000  8.3545470000  5.4607500000
H  -3.6324330000  6.2915590000  5.4607500000
C  -6.1235300000  8.3545470000  5.4607500000
N  -5.5073760000  7.1700390000  5.4607500000
H  -7.2056340000  8.3545470000  5.4607500000
C  -4.1734850000  9.4804060000  5.4607500000
N  -5.5073760000  9.5390550000  5.4607500000
H  -3.6324330000  10.4175350000  5.4607500000