9
charge=0, multiplicity=1, basis=def2-QZVPPD, AUX_BASIS_CORR=rimp2-def2-QZVPPD, SCF_ALGORITHM=GDM, xc_grid=000099000590, mem_total=3750, num_basis=477, num_pairs=111462, num_threads=1
C  -4.1734850000  12.7983860000  10.3147500000
N  -3.4557480000  13.9242450000  10.3147500000
H  -3.6324330000  11.8612570000  10.3147500000
C  -6.1235300000  13.9242450000  10.3147500000
N  -5.5073760000  12.7397370000  10.3147500000
H  -7.2056340000  13.9242450000  10.3147500000
C  -4.1734850000  15.0501040000  10.3147500000
N  -5.5073760000  15.1087530000  10.3147500000
H  -3.6324330000  15.9872330000  10.3147500000