9
charge=0, multiplicity=1, basis=def2-QZVPPD, AUX_BASIS_CORR=rimp2-def2-QZVPPD, SCF_ALGORITHM=GDM, xc_grid=000099000590, mem_total=3750, num_basis=477, num_pairs=111462, num_threads=1
C  -3.5234700000  13.9242450000  6.6742500000
N  -4.1396240000  12.7397370000  6.6742500000
H  -2.4413660000  13.9242450000  6.6742500000
C  -5.4735150000  15.0501040000  6.6742500000
N  -4.1396240000  15.1087530000  6.6742500000
H  -6.0145670000  15.9872330000  6.6742500000
C  -5.4735150000  12.7983860000  6.6742500000
N  -6.1912520000  13.9242450000  6.6742500000
H  -6.0145670000  11.8612570000  6.6742500000