3
charge=-1, multiplicity=1, basis=def2-QZVPPD, AUX_BASIS_CORR=rimp2-def2-QZVPPD, SCF_ALGORITHM=GDM, xc_grid=000099000590, mem_total=3750, num_basis=262, num_pairs=30633, num_threads=1
Br  -2.3807333810  0.0000000000  0.0000000000
Br  0.2069511680  0.0000000000  0.0000000000
F  2.1737822130  0.0000000000  0.0000000000