4
charge=0, multiplicity=1, basis=def2-QZVPPD, AUX_BASIS_CORR=rimp2-def2-QZVPPD, SCF_ALGORITHM=GDM, xc_grid=000099000590, mem_total=3750, num_basis=261, num_pairs=34291, num_threads=1
N  0.2333610000  1.3924090000  0.0000000000
F  -0.5737730000  1.0979390000  -1.0644790000
F  -0.5737730000  1.0979390000  1.0644790000
F  0.2191150000  2.7655260000  0.0000000000