8
charge=0, multiplicity=1, basis=def2-QZVPPD, AUX_BASIS_CORR=rimp2-def2-QZVPPD, SCF_ALGORITHM=GDM, xc_grid=000099000590, mem_total=3750, num_basis=324, num_pairs=53089, num_threads=1
C  0.0340330000  0.0000000000  0.1563770000
C  -0.0476520000  0.0000000000  1.6788180000
H  -0.9627570000  0.0000000000  -0.2853020000
H  -0.5752460000  0.8795690000  2.0436780000
H  0.5631650000  0.8819240000  -0.2044970000
H  0.9457960000  0.0000000000  2.1238070000
H  0.5631650000  -0.8819240000  -0.2044970000
H  -0.5752460000  -0.8795690000  2.0436780000