20
charge=0, multiplicity=1, basis=def2-QZVPPD, AUX_BASIS_CORR=rimp2-def2-QZVPPD, SCF_ALGORITHM=GDM, xc_grid=000099000590, mem_total=15000, num_basis=960, num_pairs=435370, num_threads=4
C  0.0000000000  1.3226430000  0.7833710000
C  1.2579090000  0.4087190000  0.7833710000
C  0.7774300000  -1.0700410000  0.7833710000
C  -0.7774300000  -1.0700410000  0.7833710000
C  -1.2579090000  0.4087190000  0.7833710000
C  0.0000000000  1.3226430000  -0.7833710000
C  1.2579090000  0.4087190000  -0.7833710000
C  0.7774300000  -1.0700410000  -0.7833710000
C  -0.7774300000  -1.0700410000  -0.7833710000
C  -1.2579090000  0.4087190000  -0.7833710000
H  0.0000000000  2.2305700000  -1.3807620000
H  2.1213980000  0.6892840000  -1.3807620000
H  1.3110960000  -1.8045690000  -1.3807620000
H  -1.3110960000  -1.8045690000  -1.3807620000
H  -2.1213980000  0.6892840000  -1.3807620000
H  -2.1213980000  0.6892840000  1.3807620000
H  0.0000000000  2.2305700000  1.3807620000
H  2.1213980000  0.6892840000  1.3807620000
H  1.3110960000  -1.8045690000  1.3807620000
H  -1.3110960000  -1.8045690000  1.3807620000