12
charge=0, multiplicity=1, basis=def2-QZVPPD, AUX_BASIS_CORR=rimp2-def2-QZVPPD, SCF_ALGORITHM=GDM, xc_grid=000099000590, mem_total=3750, num_basis=516, num_pairs=122392, num_threads=1
H  0.9244451000  -1.2317222100  -1.7156274115
H  -0.9244451000  -1.2317222100  -1.7156274115
H  -0.9244451000  1.2317222100  -1.7156274115
H  0.9244451000  1.2317222100  -1.7156274115
C  0.0000000000  0.6672877800  -1.7149994815
C  0.0000000000  -0.6672877800  -1.7149994815
H  0.0000000000  1.2334494800  2.6387525748
H  0.0000000000  1.2254714800  0.7871966448
H  0.0000000000  -1.2254714800  0.7871966448
H  0.0000000000  -1.2334494800  2.6387525748
C  0.0000000000  -0.6671169800  1.7154450748
C  0.0000000000  0.6671169800  1.7154450748