3
charge=0, multiplicity=1, basis=def2-QZVPPD, AUX_BASIS_CORR=rimp2-def2-QZVPPD, SCF_ALGORITHM=GDM, xc_grid=000099000590, mem_total=3750, num_basis=132, num_pairs=9017, num_threads=1
O  4.0105807700  0.0140437200  -0.0484495100
H  3.0506716200  0.2018500000  -0.0908807700
H  4.0144793900  -0.9086834600  0.2194902800