3
charge=0, multiplicity=1, basis=def2-QZVPPD, AUX_BASIS_CORR=rimp2-def2-QZVPPD, SCF_ALGORITHM=GDM, xc_grid=000099000590, mem_total=3750, num_basis=132, num_pairs=9017, num_threads=1
O  -1.9437112100  0.2953262400  -1.6709141100
H  -2.1070589100  -0.5487961300  -1.2222912700
H  -0.9988742300  0.4203500600  -1.4588950000