3
charge=0, multiplicity=1, basis=def2-QZVPPD, AUX_BASIS_CORR=rimp2-def2-QZVPPD, SCF_ALGORITHM=GDM, xc_grid=000099000590, mem_total=3750, num_basis=132, num_pairs=9017, num_threads=1
O  1.6264303500  -1.2781066100  -1.0471969700
H  1.8433925000  -0.3900763900  -1.3560759600
H  0.7179423100  -1.1172386100  -0.6972388400