3
charge=0, multiplicity=1, basis=def2-QZVPPD, AUX_BASIS_CORR=rimp2-def2-QZVPPD, SCF_ALGORITHM=GDM, xc_grid=000099000590, mem_total=3750, num_basis=132, num_pairs=9017, num_threads=1
O  1.3097920000  -2.0644180000  -0.5557760000
H  0.6365060000  -2.7336310000  -0.4330050000
H  0.9543610000  -1.2851560000  -0.1283980000