3
charge=0, multiplicity=1, basis=def2-QZVPPD, AUX_BASIS_CORR=rimp2-def2-QZVPPD, SCF_ALGORITHM=GDM, xc_grid=000099000590, mem_total=3750, num_basis=132, num_pairs=9017, num_threads=1
O  0.3930030000  0.1612340000  0.7162990000
H  0.7820410000  0.2151970000  1.5892080000
H  0.8382750000  0.8425720000  0.2125690000