3
charge=0, multiplicity=1, basis=def2-QZVPPD, AUX_BASIS_CORR=rimp2-def2-QZVPPD, SCF_ALGORITHM=GDM, xc_grid=000099000590, mem_total=3750, num_basis=132, num_pairs=9017, num_threads=1
O  2.1860430000  1.8225960000  -0.5791120000
H  2.6274320000  1.0861440000  -1.0022510000
H  2.1248250000  2.4903170000  -1.2622190000