3
charge=0, multiplicity=1, basis=def2-QZVPPD, AUX_BASIS_CORR=rimp2-def2-QZVPPD, SCF_ALGORITHM=GDM, xc_grid=000099000590, mem_total=3750, num_basis=132, num_pairs=9017, num_threads=1
O  1.5493230000  0.2258500000  3.1747870000
H  2.2306700000  -0.4449460000  3.2198740000
H  0.8419890000  -0.1132860000  3.7233280000