3
charge=0, multiplicity=1, basis=def2-QZVPPD, AUX_BASIS_CORR=rimp2-def2-QZVPPD, SCF_ALGORITHM=GDM, xc_grid=000099000590, mem_total=3750, num_basis=132, num_pairs=9017, num_threads=1
O  3.3626090000  -3.0974480000  0.8884070000
H  4.1505140000  -2.7133300000  0.5038410000
H  2.6446690000  -2.7575930000  0.3542780000