3
charge=0, multiplicity=1, basis=def2-QZVPPD, AUX_BASIS_CORR=rimp2-def2-QZVPPD, SCF_ALGORITHM=GDM, xc_grid=000099000590, mem_total=3750, num_basis=132, num_pairs=9017, num_threads=1
O  -0.4633410000  -1.3799110000  4.2272180000
H  -1.0949400000  -1.7849970000  4.8215420000
H  -0.8698480000  -1.4466690000  3.3631990000