3
charge=0, multiplicity=1, basis=def2-QZVPPD, AUX_BASIS_CORR=rimp2-def2-QZVPPD, SCF_ALGORITHM=GDM, xc_grid=000099000590, mem_total=3750, num_basis=132, num_pairs=9017, num_threads=1
O  -2.5083960000  -5.4455140000  1.6294680000
H  -1.8573280000  -5.8420020000  2.2083810000
H  -3.0313910000  -6.1832120000  1.3156050000