3
charge=0, multiplicity=1, basis=def2-QZVPPD, AUX_BASIS_CORR=rimp2-def2-QZVPPD, SCF_ALGORITHM=GDM, xc_grid=000099000590, mem_total=3750, num_basis=132, num_pairs=9017, num_threads=1
O  2.6612200000  -2.8120570000  -2.8333050000
H  2.5825980000  -1.9197100000  -2.4261910000
H  2.1516420000  -2.6841900000  -3.6545330000