3
charge=0, multiplicity=1, basis=def2-QZVPPD, AUX_BASIS_CORR=rimp2-def2-QZVPPD, SCF_ALGORITHM=GDM, xc_grid=000099000590, mem_total=3750, num_basis=132, num_pairs=9017, num_threads=1
O  3.3091630000  -0.4052840000  -1.5970420000
H  4.0776580000  -0.7538800000  -1.1452370000
H  2.6339160000  -1.0719670000  -1.4713140000