3
charge=0, multiplicity=1, basis=def2-QZVPPD, AUX_BASIS_CORR=rimp2-def2-QZVPPD, SCF_ALGORITHM=GDM, xc_grid=000099000590, mem_total=3750, num_basis=132, num_pairs=9017, num_threads=1
O  0.6158750000  -1.5380160000  0.0146090000
H  1.1115200000  -1.1075880000  -0.7314040000
H  0.5883070000  -2.5000520000  -0.2510060000