3
charge=0, multiplicity=1, basis=def2-QZVPPD, AUX_BASIS_CORR=rimp2-def2-QZVPPD, SCF_ALGORITHM=GDM, xc_grid=000099000590, mem_total=3750, num_basis=132, num_pairs=9017, num_threads=1
O  -1.5368740000  -2.6302730000  -2.7068040000
H  -1.8191310000  -1.9058350000  -2.1087100000
H  -0.9309470000  -2.1898220000  -3.3475600000