3
charge=0, multiplicity=1, basis=def2-QZVPPD, AUX_BASIS_CORR=rimp2-def2-QZVPPD, SCF_ALGORITHM=GDM, xc_grid=000099000590, mem_total=3750, num_basis=132, num_pairs=9017, num_threads=1
O  -1.5209330000  -1.6025060000  1.7297510000
H  -1.1681420000  -2.3841750000  1.3045860000
H  -1.1016490000  -0.8720250000  1.2749650000