3
charge=0, multiplicity=1, basis=def2-QZVPPD, AUX_BASIS_CORR=rimp2-def2-QZVPPD, SCF_ALGORITHM=GDM, xc_grid=000099000590, mem_total=3750, num_basis=132, num_pairs=9017, num_threads=1
O  1.5877780000  2.0048270000  -0.4312930000
H  1.0404670000  1.6330550000  0.3046560000
H  1.9466400000  1.2059010000  -0.8694500000