3
charge=0, multiplicity=1, basis=def2-QZVPPD, AUX_BASIS_CORR=rimp2-def2-QZVPPD, SCF_ALGORITHM=GDM, xc_grid=000099000590, mem_total=3750, num_basis=132, num_pairs=9017, num_threads=1
O  -2.3019340000  -2.9851570000  5.5183510000
H  -2.7512320000  -3.1183080000  4.6837040000
H  -3.0073210000  -2.9020130000  6.1600280000