3
charge=0, multiplicity=1, basis=def2-QZVPPD, AUX_BASIS_CORR=rimp2-def2-QZVPPD, SCF_ALGORITHM=GDM, xc_grid=000099000590, mem_total=3750, num_basis=132, num_pairs=9017, num_threads=1
O  -1.7566400000  -0.4066020000  -0.7930880000
H  -1.3758130000  0.2723640000  -1.3958370000
H  -0.9571480000  -0.9171980000  -0.4992250000