4
charge=1, multiplicity=2, basis=def2-QZVPPD, AUX_BASIS_CORR=rimp2-def2-QZVPPD, SCF_ALGORITHM=GDM, xc_grid=000099000590, mem_total=3750, num_basis=162, num_pairs=13492, num_threads=1
N  0.0000000000  0.0000000000  0.0000000000
H  0.0000000000  1.0245700000  0.0000000000
H  0.8873040000  -0.5122850000  0.0000000000
H  -0.8873040000  -0.5122850000  0.0000000000