12
charge=0, multiplicity=1, basis=def2-QZVPPD, AUX_BASIS_CORR=rimp2-def2-QZVPPD, SCF_ALGORITHM=GDM, xc_grid=000099000590, mem_total=3750, num_basis=576, num_pairs=159036, num_threads=1
C  1.0000000000  0.0000000000  -0.3915000000
C  1.0000000000  1.2050740000  0.3042500000
C  1.0000000000  1.2050740000  1.6957500000
C  1.0000000000  0.0000000000  2.3915000000
C  1.0000000000  -1.2050740000  1.6957500000
C  1.0000000000  -1.2050740000  0.3042500000
H  1.0000000000  0.0000000000  -1.4715000000
H  1.0000000000  2.1403820000  -0.2357500000
H  1.0000000000  2.1403820000  2.2357500000
H  1.0000000000  0.0000000000  3.4715000000
H  1.0000000000  -2.1403820000  2.2357500000
H  1.0000000000  -2.1403820000  -0.2357500000