17
charge=0, multiplicity=1, basis=def2-QZVPPD, AUX_BASIS_CORR=rimp2-def2-QZVPPD, SCF_ALGORITHM=GDM, xc_grid=000099000590, mem_total=7500, num_basis=771, num_pairs=237078, num_threads=2
C  1.3915000000  0.0000000000  1.0000000000
C  0.6957500000  1.2050743494  1.0000000000
C  -0.6957500000  1.2050743494  1.0000000000
C  -1.3915000000  0.0000000000  1.0000000000
C  -0.6957500000  -1.2050743494  1.0000000000
C  0.6957500000  -1.2050743494  1.0000000000
H  2.4715000000  0.0000000000  1.0000000000
H  1.2357500000  2.1403817855  1.0000000000
H  -1.2357500000  2.1403817855  1.0000000000
H  -2.4715000000  0.0000000000  1.0000000000
H  -1.2357500000  -2.1403817855  1.0000000000
H  1.2357500000  -2.1403817855  1.0000000000
C  0.0000000000  0.0000000000  6.0000000000
H  0.0000000000  0.0000000000  4.9140500000
H  0.8866744622  0.5119217395  6.3619833327
H  -1.0238434789  0.0000000000  6.3619833327
H  0.5119217395  -0.8866744622  6.3619833327