5
charge=0, multiplicity=1, basis=def2-QZVPPD, mem_total=3750, AUX_BASIS_CORR=rimp2-def2-QZVPPD, SCF_ALGORITHM=GDM, xc_grid=000099000590, num_basis=195, num_pairs=19452, num_threads=1
C  0.0000000000  0.0000000000  4.8000000000
H  0.0000000000  0.0000000000  3.7140500000
H  0.8866744622  0.5119217395  5.1619833327
H  -1.0238434789  0.0000000000  5.1619833327
H  0.5119217395  -0.8866744622  5.1619833327