3
charge=0, multiplicity=1, basis=def2-QZVPPD, AUX_BASIS_CORR=rimp2-def2-QZVPPD, SCF_ALGORITHM=GDM, xc_grid=000099000590, mem_total=3750, num_basis=132, num_pairs=9017, num_threads=1
O  1.9517630000  1.0399200000  0.0000000000
H  2.5305310000  1.1480900000  0.7603200000
H  2.5305310000  1.1480900000  -0.7603200000