4
charge=0, multiplicity=1, basis=def2-QZVPPD, AUX_BASIS_CORR=rimp2-def2-QZVPPD, SCF_ALGORITHM=GDM, xc_grid=000099000590, mem_total=3750, num_basis=195, num_pairs=19475, num_threads=1
C  0.1114100000  -2.2827700000  0.5613720000
O  -0.0891840000  -2.0900520000  -0.6190560000
H  -0.0551820000  -3.2681530000  1.0206450000
H  0.4685120000  -1.4801040000  1.2232850000