3
charge=0, multiplicity=1, basis=def2-QZVPPD, AUX_BASIS_CORR=rimp2-def2-QZVPPD, SCF_ALGORITHM=GDM, xc_grid=000099000590, mem_total=3750, num_basis=132, num_pairs=9017, num_threads=1
O  -2.2917617200  -0.9199259300  -0.6592227300
H  -1.3109856200  -1.1225511700  -0.6922899600
H  -2.6094301400  -1.4883117400  0.0475053700