3
charge=0, multiplicity=1, basis=def2-QZVPPD, AUX_BASIS_CORR=rimp2-def2-QZVPPD, SCF_ALGORITHM=GDM, xc_grid=000099000590, mem_total=3750, num_basis=132, num_pairs=9017, num_threads=1
O  -1.5414146500  1.5561714200  0.6747778800
H  -1.9619752300  0.8336589400  0.1746732600
H  -0.9163367800  1.0599727000  1.2362963100