3
charge=0, multiplicity=1, basis=def2-QZVPPD, AUX_BASIS_CORR=rimp2-def2-QZVPPD, SCF_ALGORITHM=GDM, xc_grid=000099000590, mem_total=3750, num_basis=132, num_pairs=9017, num_threads=1
O  0.2903471700  -0.3077297900  1.8595729000
H  1.2122336400  -0.0244661900  1.8072574400
H  0.2047933800  -0.7701236300  0.9856971700