4
charge=0, multiplicity=1, basis=def2-QZVPPD, AUX_BASIS_CORR=rimp2-def2-QZVPPD, SCF_ALGORITHM=GDM, xc_grid=000099000590, mem_total=3750, num_basis=132, num_pairs=8400, num_threads=1
H  0.0000000000  0.3833190300  -1.6933670400
H  0.0000000000  -0.3833190300  -1.6933670400
H  0.0000000000  0.0000000000  1.3100480100
H  0.0000000000  0.0000000000  2.0766860700