4
charge=0, multiplicity=1, basis=def2-QZVPPD, AUX_BASIS_CORR=rimp2-def2-QZVPPD, SCF_ALGORITHM=GDM, xc_grid=000099000590, mem_total=3750, num_basis=162, num_pairs=13492, num_threads=1
N  -0.0000043440  0.0000000000  -0.0236303944
H  0.9488354190  0.0000000000  -0.3812139995
H  -0.4744069868  -0.8216933767  -0.3811831150
H  -0.4744069868  0.8216933767  -0.3811831150