3
charge=0, multiplicity=1, basis=def2-QZVPPD, AUX_BASIS_CORR=rimp2-def2-QZVPPD, SCF_ALGORITHM=GDM, xc_grid=000099000590, mem_total=3750, num_basis=132, num_pairs=9017, num_threads=1
O  -1.2082705500  2.0656108200  0.0149199000
H  -0.6429601600  1.7328498200  0.7397233200
H  -1.8391968600  1.3333482700  -0.1003134000