3
charge=0, multiplicity=1, basis=def2-QZVPPD, AUX_BASIS_CORR=rimp2-def2-QZVPPD, SCF_ALGORITHM=GDM, xc_grid=000099000590, mem_total=3750, num_basis=132, num_pairs=9017, num_threads=1
O  0.6752663800  0.8661576400  -1.8065922400
H  0.0405326100  1.4154564300  -1.3086823000
H  0.4341960100  -0.0312494600  -1.5102536600