3
charge=0, multiplicity=1, basis=def2-QZVPPD, AUX_BASIS_CORR=rimp2-def2-QZVPPD, SCF_ALGORITHM=GDM, xc_grid=000099000590, mem_total=3750, num_basis=132, num_pairs=9017, num_threads=1
O  -1.3960410000  -2.7475680000  -2.6507050000
H  -1.6971470000  -2.0511610000  -2.0290450000
H  -0.8006560000  -2.2598010000  -3.2677890000