3
charge=0, multiplicity=1, basis=def2-QZVPPD, AUX_BASIS_CORR=rimp2-def2-QZVPPD, SCF_ALGORITHM=GDM, xc_grid=000099000590, mem_total=3750, num_basis=132, num_pairs=9017, num_threads=1
O  0.7493830000  -5.5321790000  6.8615940000
H  -0.1131530000  -5.7226160000  7.2303740000
H  0.8129430000  -4.5772780000  6.8804540000