3
charge=0, multiplicity=1, basis=def2-QZVPPD, AUX_BASIS_CORR=rimp2-def2-QZVPPD, SCF_ALGORITHM=GDM, xc_grid=000099000590, mem_total=3750, num_basis=132, num_pairs=9017, num_threads=1
O  3.2804770000  -6.3644530000  6.0740340000
H  3.8187580000  -5.5813320000  6.1889630000
H  2.4575170000  -6.1570900000  6.5167190000