3
charge=0, multiplicity=1, basis=def2-QZVPPD, AUX_BASIS_CORR=rimp2-def2-QZVPPD, SCF_ALGORITHM=GDM, xc_grid=000099000590, mem_total=3750, num_basis=132, num_pairs=9017, num_threads=1
O  0.6885470000  -3.9657200000  -1.2508530000
H  -0.1066710000  -3.6711690000  -1.7642890000
H  1.4473680000  -3.6899410000  -1.8154930000