3
charge=0, multiplicity=1, basis=def2-QZVPPD, AUX_BASIS_CORR=rimp2-def2-QZVPPD, SCF_ALGORITHM=GDM, xc_grid=000099000590, mem_total=3750, num_basis=132, num_pairs=9017, num_threads=1
O  -0.1025500000  -3.0906400000  3.9000620000
H  0.0737060000  -4.0285240000  3.8256380000
H  -1.0494280000  -3.0338270000  4.0282340000