3
charge=0, multiplicity=1, basis=def2-QZVPPD, AUX_BASIS_CORR=rimp2-def2-QZVPPD, SCF_ALGORITHM=GDM, xc_grid=000099000590, mem_total=3750, num_basis=132, num_pairs=9017, num_threads=1
O  1.7714960000  -0.4040460000  6.2358080000
H  1.1262580000  0.2291160000  6.5504610000
H  1.6217170000  -0.4502240000  5.2915270000