3
charge=0, multiplicity=1, basis=def2-QZVPPD, AUX_BASIS_CORR=rimp2-def2-QZVPPD, SCF_ALGORITHM=GDM, xc_grid=000099000590, mem_total=3750, num_basis=132, num_pairs=9017, num_threads=1
O  4.2339260000  -4.1557420000  3.3306170000
H  4.5347340000  -4.1955270000  4.2384520000
H  3.7139810000  -4.9510560000  3.2150080000