3
charge=0, multiplicity=1, basis=def2-QZVPPD, AUX_BASIS_CORR=rimp2-def2-QZVPPD, SCF_ALGORITHM=GDM, xc_grid=000099000590, mem_total=3750, num_basis=132, num_pairs=9017, num_threads=1
O  -0.1098010000  1.2177660000  -5.0517340000
H  0.7952630000  1.5385140000  -5.1843710000
H  -0.2807690000  1.4427120000  -4.1021670000