3
charge=0, multiplicity=1, basis=def2-QZVPPD, AUX_BASIS_CORR=rimp2-def2-QZVPPD, SCF_ALGORITHM=GDM, xc_grid=000099000590, mem_total=3750, num_basis=132, num_pairs=9017, num_threads=1
O  -0.4400740000  2.0192450000  0.2626560000
H  -1.0225660000  1.2329530000  0.2303040000
H  0.4509240000  1.6438010000  0.4804000000