3
charge=0, multiplicity=1, basis=def2-QZVPPD, AUX_BASIS_CORR=rimp2-def2-QZVPPD, SCF_ALGORITHM=GDM, xc_grid=000099000590, mem_total=3750, num_basis=132, num_pairs=9017, num_threads=1
O  4.8655350000  -4.0900710000  6.0250550000
H  4.6277640000  -3.1629990000  6.0404320000
H  5.7405450000  -4.1198560000  6.4119700000