3
charge=0, multiplicity=1, basis=def2-QZVPPD, AUX_BASIS_CORR=rimp2-def2-QZVPPD, SCF_ALGORITHM=GDM, xc_grid=000099000590, mem_total=3750, num_basis=132, num_pairs=9017, num_threads=1
O  -1.9554890000  -5.7411830000  7.4828350000
H  -2.2072360000  -5.8454660000  6.5652400000
H  -2.4724760000  -6.3977320000  7.9496340000