3
charge=0, multiplicity=1, basis=def2-QZVPPD, AUX_BASIS_CORR=rimp2-def2-QZVPPD, SCF_ALGORITHM=GDM, xc_grid=000099000590, mem_total=3750, num_basis=132, num_pairs=9017, num_threads=1
O  -1.6613480000  -0.4663920000  -0.8278890000
H  -1.2606920000  0.0902590000  -1.5326620000
H  -0.8732260000  -0.9274520000  -0.4310110000