3
charge=0, multiplicity=1, basis=def2-QZVPPD, AUX_BASIS_CORR=rimp2-def2-QZVPPD, SCF_ALGORITHM=GDM, xc_grid=000099000590, mem_total=3750, num_basis=132, num_pairs=9017, num_threads=1
O  2.7807830000  -6.5194440000  3.4376860000
H  2.9954790000  -6.5526590000  4.3699070000
H  3.1021330000  -7.3503740000  3.0876530000