3
charge=0, multiplicity=1, basis=def2-QZVPPD, AUX_BASIS_CORR=rimp2-def2-QZVPPD, SCF_ALGORITHM=GDM, xc_grid=000099000590, mem_total=3750, num_basis=132, num_pairs=9017, num_threads=1
O  4.2937760000  -1.4601850000  5.7539320000
H  4.2308930000  -1.3561680000  4.8044800000
H  3.5164560000  -1.0184130000  6.0957580000