3
charge=0, multiplicity=1, basis=def2-QZVPPD, AUX_BASIS_CORR=rimp2-def2-QZVPPD, SCF_ALGORITHM=GDM, xc_grid=000099000590, mem_total=3750, num_basis=132, num_pairs=9017, num_threads=1
O  -2.0325570000  -2.9657810000  7.2964110000
H  -2.1226610000  -3.8841550000  7.5507800000
H  -1.0942720000  -2.8489860000  7.1473730000