3
charge=0, multiplicity=1, basis=def2-QZVPPD, AUX_BASIS_CORR=rimp2-def2-QZVPPD, SCF_ALGORITHM=GDM, xc_grid=000099000590, mem_total=3750, num_basis=132, num_pairs=9017, num_threads=1
O  0.5596070000  -1.3437330000  -4.0783720000
H  0.9901350000  -0.9211370000  -3.2970200000
H  0.2518570000  -0.5740020000  -4.6098600000