3
charge=0, multiplicity=1, basis=def2-QZVPPD, AUX_BASIS_CORR=rimp2-def2-QZVPPD, SCF_ALGORITHM=GDM, xc_grid=000099000590, mem_total=3750, num_basis=132, num_pairs=9017, num_threads=1
O  -2.7113620000  -3.0328210000  4.6591650000
H  -3.0304830000  -2.1566050000  4.4432000000
H  -2.5686930000  -3.0098080000  5.6053930000