3
charge=0, multiplicity=1, basis=def2-QZVPPD, AUX_BASIS_CORR=rimp2-def2-QZVPPD, SCF_ALGORITHM=GDM, xc_grid=000099000590, mem_total=3750, num_basis=132, num_pairs=9017, num_threads=1
O  -0.1107810000  1.4051880000  -2.3545480000
H  -0.2375290000  1.9117840000  -1.5108680000
H  0.7012060000  0.8556400000  -2.1926660000