3
charge=0, multiplicity=1, basis=def2-QZVPPD, AUX_BASIS_CORR=rimp2-def2-QZVPPD, SCF_ALGORITHM=GDM, xc_grid=000099000590, mem_total=3750, num_basis=132, num_pairs=9017, num_threads=1
O  -2.6008640000  -0.2429410000  7.0911110000
H  -2.9826210000  -0.2631850000  6.2135670000
H  -2.5136360000  -1.1641160000  7.3361860000