3
charge=0, multiplicity=1, basis=def2-QZVPPD, AUX_BASIS_CORR=rimp2-def2-QZVPPD, SCF_ALGORITHM=GDM, xc_grid=000099000590, mem_total=3750, num_basis=132, num_pairs=9017, num_threads=1
O  -0.9152130000  0.9067800000  4.0795550000
H  -0.6751580000  1.1630890000  4.9700120000
H  -0.1478570000  0.4396050000  3.7491840000