9
charge=0, multiplicity=1, basis=def2-QZVPPD, AUX_BASIS_CORR=rimp2-def2-QZVPPD, SCF_ALGORITHM=GDM, xc_grid=000099000590, mem_total=3750, num_basis=357, num_pairs=63003, num_threads=1
C  0.0033252854  0.0000000000  1.3416011751
H  0.8483616354  0.0000000000  0.6507356051
H  0.3949986154  0.0000000000  2.3569984450
H  -0.6028191846  -0.8899429900  1.1859758351
H  -0.6028191846  0.8899429900  1.1859758351
B  -0.0046077686  0.0000000000  -1.3394115314
H  0.5854966814  -1.0305180000  -1.4200270214
H  0.5854966814  1.0305180000  -1.4200270214
H  -1.1880860786  0.0000000000  -1.2173039414