3
charge=0, multiplicity=1, basis=def2-QZVPPD, AUX_BASIS_CORR=rimp2-def2-QZVPPD, SCF_ALGORITHM=GDM, xc_grid=000099000590, mem_total=3750, num_basis=132, num_pairs=9017, num_threads=1
O  -0.0756120000  -2.5932400000  0.0000000000
H  0.0692900000  -3.1675210000  -0.7549270000
H  0.0692900000  -3.1675210000  0.7549270000