7
charge=0, multiplicity=1, basis=def2-QZVPPD, AUX_BASIS_CORR=rimp2-def2-QZVPPD, SCF_ALGORITHM=GDM, xc_grid=000099000590, mem_total=3750, num_basis=324, num_pairs=46010, num_threads=1
C  0.0000000000  0.0000000000  -2.2678020000
H  0.0000000000  0.0000000000  -3.3300380000
C  0.0000000000  0.0000000000  -1.0540770000
H  0.0000000000  0.0000000000  0.0132480000
O  0.0000000000  0.0000000000  2.2070720000
H  0.0000000000  0.7604920000  2.7955490000
H  0.0000000000  -0.7604920000  2.7955490000