6
charge=0, multiplicity=1, basis=def2-QZVPPD, AUX_BASIS_CORR=rimp2-def2-QZVPPD, SCF_ALGORITHM=GDM, xc_grid=000099000590, mem_total=3750, num_basis=274, num_pairs=37950, num_threads=1
S  0.6780360000  0.9581940000  0.0000000000
C  -1.0974220000  1.3143960000  0.0000000000
H  0.5574890000  -0.3712440000  0.0000000000
H  -1.5784660000  0.9190180000  0.8891110000
H  -1.1983720000  2.3962870000  0.0000000000
H  -1.5784660000  0.9190180000  -0.8891110000