6
charge=0, multiplicity=1, basis=def2-QZVPPD, AUX_BASIS_CORR=rimp2-def2-QZVPPD, SCF_ALGORITHM=GDM, xc_grid=000099000590, mem_total=3750, num_basis=261, num_pairs=33434, num_threads=1
F  0.0000000000  0.0000000032  1.4296682813
H  0.0000000000  -0.0000000008  0.4803209691
N  0.0000000000  -0.0000000017  -1.2161919479
H  0.0000000000  0.9406400491  -1.5917171076
H  0.8146175985  -0.4703200233  -1.5917170974
H  -0.8146175985  -0.4703200233  -1.5917170974