3
charge=0, multiplicity=1, basis=def2-QZVPPD, AUX_BASIS_CORR=rimp2-def2-QZVPPD, SCF_ALGORITHM=GDM, xc_grid=000099000590, mem_total=3750, num_basis=132, num_pairs=9017, num_threads=1
O  -2.5767057300  1.3964754700  0.1711093200
H  -2.8464293300  1.6290322700  -0.7212841500
H  -1.5831440300  1.4575408700  0.1327643100