3
charge=0, multiplicity=1, basis=def2-QZVPPD, AUX_BASIS_CORR=rimp2-def2-QZVPPD, SCF_ALGORITHM=GDM, xc_grid=000099000590, mem_total=3750, num_basis=132, num_pairs=9017, num_threads=1
O  0.1573640900  -0.7602131300  1.6884561500
H  -0.6571479400  -1.2007430600  1.3916502300
H  0.1134597300  0.0784596000  1.1785454600