3
charge=0, multiplicity=1, basis=def2-QZVPPD, AUX_BASIS_CORR=rimp2-def2-QZVPPD, SCF_ALGORITHM=GDM, xc_grid=000099000590, mem_total=3750, num_basis=132, num_pairs=9017, num_threads=1
O  3.0203811400  0.9998428800  -0.0746406700
H  2.0938130600  1.3184958600  -0.1487044900
H  3.2161972500  1.1489956000  0.8554484300