3
charge=0, multiplicity=1, basis=def2-QZVPPD, AUX_BASIS_CORR=rimp2-def2-QZVPPD, SCF_ALGORITHM=GDM, xc_grid=000099000590, mem_total=3750, num_basis=132, num_pairs=9017, num_threads=1
O  -0.1295202200  -0.9451180700  -1.7464597700
H  0.6752066900  -1.3367361100  -1.3542981400
H  -0.1115644400  -0.0436907400  -1.3739073200