3
charge=0, multiplicity=1, basis=def2-QZVPPD, AUX_BASIS_CORR=rimp2-def2-QZVPPD, SCF_ALGORITHM=GDM, xc_grid=000099000590, mem_total=3750, num_basis=132, num_pairs=9017, num_threads=1
O  -2.2135939500  -1.4932734600  0.1391232700
H  -1.5617459600  -1.4123828000  -0.5849171400
H  -2.5195061600  -0.5735837900  0.2290726000