3
charge=0, multiplicity=1, basis=def2-QZVPPD, AUX_BASIS_CORR=rimp2-def2-QZVPPD, SCF_ALGORITHM=GDM, xc_grid=000099000590, mem_total=3750, num_basis=132, num_pairs=9017, num_threads=1
O  2.5784699100  1.3987776000  -0.1583196600
H  1.5845767700  1.4586051200  -0.1344149100
H  2.8329431100  1.6133651000  0.7430595400