3
charge=0, multiplicity=1, basis=def2-QZVPPD, AUX_BASIS_CORR=rimp2-def2-QZVPPD, SCF_ALGORITHM=GDM, xc_grid=000099000590, mem_total=3750, num_basis=132, num_pairs=9017, num_threads=1
O  2.2162642400  -1.4935337600  -0.1404399600
H  2.5220706800  -0.5739479800  -0.2310104100
H  1.5629185100  -1.4114178500  0.5821586700