6
charge=0, multiplicity=1, basis=def2-QZVPPD, AUX_BASIS_CORR=rimp2-def2-QZVPPD, SCF_ALGORITHM=GDM, xc_grid=000099000590, mem_total=3750, num_basis=360, num_pairs=58854, num_threads=1
N  0.0000000000  0.0000000000  -0.0086530000
F  1.2295530000  0.0000000000  -0.5957160000
F  -0.6147760000  -1.0648240000  -0.5957160000
F  -0.6147760000  1.0648240000  -0.5957160000
H  0.0000000000  0.0000000000  2.0441120000
F  0.0000000000  0.0000000000  2.9644740000