3
charge=0, multiplicity=1, basis=def2-QZVPPD, AUX_BASIS_CORR=rimp2-def2-QZVPPD, SCF_ALGORITHM=GDM, xc_grid=000099000590, mem_total=3750, num_basis=132, num_pairs=9017, num_threads=1
O  15.0183660000  3.4404130000  19.8333890000
H  14.7389580000  3.0936840000  20.6807040000
H  14.6232760000  2.8511110000  19.1908470000