3
charge=0, multiplicity=1, basis=def2-QZVPPD, AUX_BASIS_CORR=rimp2-def2-QZVPPD, SCF_ALGORITHM=GDM, xc_grid=000099000590, mem_total=3750, num_basis=132, num_pairs=9017, num_threads=1
O  18.2223380000  5.3409160000  11.7835420000
H  18.5192540000  5.0625600000  10.9171750000
H  17.5559360000  6.0049620000  11.6069530000