3
charge=0, multiplicity=1, basis=def2-QZVPPD, AUX_BASIS_CORR=rimp2-def2-QZVPPD, SCF_ALGORITHM=GDM, xc_grid=000099000590, mem_total=3750, num_basis=132, num_pairs=9017, num_threads=1
O  10.2498880000  2.7281600000  19.7480040000
H  10.6412340000  3.2940000000  20.4135160000
H  9.3229770000  2.6865730000  19.9832500000