3
charge=0, multiplicity=1, basis=def2-QZVPPD, AUX_BASIS_CORR=rimp2-def2-QZVPPD, SCF_ALGORITHM=GDM, xc_grid=000099000590, mem_total=3750, num_basis=132, num_pairs=9017, num_threads=1
O  16.1912050000  7.7720910000  15.4190420000
H  16.5858280000  8.3948350000  14.8085540000
H  16.8807100000  7.1293180000  15.5853470000