3
charge=0, multiplicity=1, basis=def2-QZVPPD, AUX_BASIS_CORR=rimp2-def2-QZVPPD, SCF_ALGORITHM=GDM, xc_grid=000099000590, mem_total=3750, num_basis=132, num_pairs=9017, num_threads=1
O  12.3284990000  0.9177050000  20.1213050000
H  11.5072180000  1.3865070000  19.9731300000
H  12.8185990000  1.0287960000  19.3066310000