3
charge=0, multiplicity=1, basis=def2-QZVPPD, AUX_BASIS_CORR=rimp2-def2-QZVPPD, SCF_ALGORITHM=GDM, xc_grid=000099000590, mem_total=3750, num_basis=132, num_pairs=9017, num_threads=1
O  11.6308370000  4.2564390000  21.4837790000
H  12.3105490000  3.6776290000  21.8290370000
H  12.1066430000  4.8959210000  20.9537760000