3
charge=0, multiplicity=1, basis=def2-QZVPPD, AUX_BASIS_CORR=rimp2-def2-QZVPPD, SCF_ALGORITHM=GDM, xc_grid=000099000590, mem_total=3750, num_basis=132, num_pairs=9017, num_threads=1
O  -1.0895480000  0.7996620000  -3.8512520000
H  -1.5068040000  1.4389140000  -4.4461360000
H  -0.4878260000  1.3491520000  -3.2463850000