3
charge=0, multiplicity=1, basis=def2-QZVPPD, AUX_BASIS_CORR=rimp2-def2-QZVPPD, SCF_ALGORITHM=GDM, xc_grid=000099000590, mem_total=3750, num_basis=132, num_pairs=9017, num_threads=1
O  16.6533480000  4.3064600000  13.8165590000
H  15.9404130000  4.9310270000  13.6828720000
H  17.2347140000  4.4421240000  13.0683330000