3
charge=0, multiplicity=1, basis=def2-QZVPPD, AUX_BASIS_CORR=rimp2-def2-QZVPPD, SCF_ALGORITHM=GDM, xc_grid=000099000590, mem_total=3750, num_basis=132, num_pairs=9017, num_threads=1
O  0.5024560000  -3.5672640000  -0.8825880000
H  -0.0673250000  -3.5612450000  -1.6977490000
H  1.4013320000  -3.4036260000  -1.2523370000