3
charge=0, multiplicity=1, basis=def2-QZVPPD, AUX_BASIS_CORR=rimp2-def2-QZVPPD, SCF_ALGORITHM=GDM, xc_grid=000099000590, mem_total=3750, num_basis=132, num_pairs=9017, num_threads=1
O  16.4787970000  4.7311030000  17.8379010000
H  16.2436350000  4.2920830000  18.6553310000
H  15.8623800000  5.4603600000  17.7712100000