3
charge=0, multiplicity=1, basis=def2-QZVPPD, AUX_BASIS_CORR=rimp2-def2-QZVPPD, SCF_ALGORITHM=GDM, xc_grid=000099000590, mem_total=3750, num_basis=132, num_pairs=9017, num_threads=1
O  14.5805620000  6.6421670000  17.3963670000
H  14.0564830000  6.1412990000  16.7713020000
H  15.0518030000  7.2786600000  16.8587410000