10
charge=0, multiplicity=1, basis=def2-QZVPPD, AUX_BASIS_CORR=rimp2-def2-QZVPPD, SCF_ALGORITHM=GDM, xc_grid=000099000590, mem_total=3750, num_basis=546, num_pairs=142045, num_threads=1
N  4.7581990000  16.9036500000  2.1704970000
N  5.2165690000  15.9009800000  1.2973920000
C  4.8026500000  16.2193800000  0.0337330000
N  4.2793920000  17.4923140000  0.1194880000
C  4.2562650000  17.9239190000  1.4289270000
O  4.8908800000  15.5429100000  -0.9865700000
O  3.8560010000  19.0167720000  1.8350330000
H  5.3104940000  17.1100820000  3.0122800000
H  5.1638310000  14.9369320000  1.6259560000
H  3.8626170000  18.0046840000  -0.6732290000