10
charge=0, multiplicity=1, basis=def2-QZVPPD, AUX_BASIS_CORR=rimp2-def2-QZVPPD, SCF_ALGORITHM=GDM, xc_grid=000099000590, mem_total=3750, num_basis=546, num_pairs=142045, num_threads=1
N  2.5423250000  6.8788500000  7.6465730000
N  3.0006960000  7.8815210000  6.7734670000
C  2.5867770000  7.5631200000  5.5098080000
N  2.0635180000  6.2901860000  5.5955640000
C  2.0403920000  5.8585810000  6.9050030000
O  2.6750060000  8.2395900000  4.4895060000
O  1.6401270000  4.7657280000  7.3111090000
H  3.0946200000  6.6724180000  8.4883550000
H  2.9479580000  8.8455680000  7.1020320000
H  1.6467440000  5.7778160000  4.8028470000