6
charge=0, multiplicity=1, basis=def2-QZVPPD, AUX_BASIS_CORR=rimp2-def2-QZVPPD, SCF_ALGORITHM=GDM, xc_grid=000099000590, mem_total=3750, num_basis=274, num_pairs=37950, num_threads=1
S  0.6884700000  0.9277630000  0.0000000000
C  -1.0479140000  1.4416290000  0.0000000000
H  0.4486240000  -0.3898520000  0.0000000000
H  -1.5632010000  1.0916860000  0.8894020000
H  -1.0544590000  2.5282110000  0.0000000000
H  -1.5632010000  1.0916860000  -0.8894020000