3
charge=0, multiplicity=1, basis=def2-QZVPPD, AUX_BASIS_CORR=rimp2-def2-QZVPPD, SCF_ALGORITHM=GDM, xc_grid=000099000590, mem_total=3750, num_basis=132, num_pairs=9017, num_threads=1
H  0.0000000000  -2.1437290000  -0.0186540000
O  0.0000000000  -3.0310030000  -0.3979520000
H  0.0000000000  -2.8800980000  -1.3472270000