3
charge=0, multiplicity=1, basis=def2-QZVPPD, AUX_BASIS_CORR=rimp2-def2-QZVPPD, SCF_ALGORITHM=GDM, xc_grid=000099000590, mem_total=3750, num_basis=211, num_pairs=22409, num_threads=1
S  0.3966488874  -0.2373989707  0.0000000000
F  2.1446273964  -0.2770573926  0.0000000000
F  0.4595045838  1.3976351700  0.0000000000