4
charge=0, multiplicity=1, basis=def2-QZVPPD, AUX_BASIS_CORR=rimp2-def2-QZVPPD, SCF_ALGORITHM=GDM, xc_grid=000099000590, mem_total=3750, num_basis=162, num_pairs=13492, num_threads=1
N  -0.0868710000  -2.6648650000  0.0000000000
H  0.3339750000  -3.1050980000  -0.8081040000
H  0.3339750000  -3.1050980000  0.8081040000
H  -1.0568590000  -2.9528250000  0.0000000000