4
charge=0, multiplicity=1, basis=def2-QZVPPD, AUX_BASIS_CORR=rimp2-def2-QZVPPD, SCF_ALGORITHM=GDM, xc_grid=000099000590, mem_total=3750, num_basis=192, num_pairs=18798, num_threads=1
C  0.6066460000  -0.0197920000  0.9883710000
C  -0.6066460000  -0.0197920000  0.9883710000
H  1.6699290000  -0.0201180000  0.9937330000
H  -1.6699290000  -0.0201180000  0.9937330000