6
charge=0, multiplicity=1, basis=def2-QZVPPD, AUX_BASIS_CORR=rimp2-def2-QZVPPD, SCF_ALGORITHM=GDM, xc_grid=000099000590, mem_total=3750, num_basis=264, num_pairs=33337, num_threads=1
O  -1.4193156050  0.0000000000  0.0632203820
O  1.4900508160  0.0000000000  -0.0670711440
H  0.5348789580  0.0000000000  0.0714715980
H  1.8637992510  0.0000000000  0.8150657980
H  -1.7607420350  0.7601642870  -0.4127064200
H  -1.7607420350  -0.7601642870  -0.4127064200