4
charge=0, multiplicity=1, basis=def2-QZVPPD, AUX_BASIS_CORR=rimp2-def2-QZVPPD, SCF_ALGORITHM=GDM, xc_grid=000099000590, mem_total=3750, num_basis=165, num_pairs=13609, num_threads=1
H  0.3833200900  0.0000000000  0.0000000000
H  -0.3833200900  0.0000000000  0.0000000000
H  0.0000000000  0.0000000000  1.9732526500
F  0.0000000000  0.0000000000  2.9061391800