3
charge=0, multiplicity=1, basis=def2-QZVPPD, AUX_BASIS_CORR=rimp2-def2-QZVPPD, SCF_ALGORITHM=GDM, xc_grid=000099000590, mem_total=3750, num_basis=132, num_pairs=9017, num_threads=1
O  0.0683580000  0.4523210000  -0.9835260000
H  -0.7550150000  0.7418370000  -1.3765520000
H  0.7462240000  0.9028340000  -1.4872800000