3
charge=0, multiplicity=1, basis=def2-QZVPPD, AUX_BASIS_CORR=rimp2-def2-QZVPPD, SCF_ALGORITHM=GDM, xc_grid=000099000590, mem_total=3750, num_basis=132, num_pairs=9017, num_threads=1
O  -4.8706670000  2.0297580000  -2.6697170000
H  -5.1757810000  1.1348830000  -2.8191700000
H  -5.1443910000  2.5102710000  -3.4510080000