3
charge=0, multiplicity=1, basis=def2-QZVPPD, AUX_BASIS_CORR=rimp2-def2-QZVPPD, SCF_ALGORITHM=GDM, xc_grid=000099000590, mem_total=3750, num_basis=132, num_pairs=9017, num_threads=1
O  -5.3966880000  -1.4444180000  3.3484060000
H  -6.3082100000  -1.3311470000  3.0790920000
H  -4.9235380000  -1.6057150000  2.5321070000