3
charge=0, multiplicity=1, basis=def2-QZVPPD, AUX_BASIS_CORR=rimp2-def2-QZVPPD, SCF_ALGORITHM=GDM, xc_grid=000099000590, mem_total=3750, num_basis=132, num_pairs=9017, num_threads=1
O  -3.2579590000  -1.5872510000  -1.7121500000
H  -2.3737050000  -1.9535670000  -1.7002760000
H  -3.5442890000  -1.6217440000  -0.7994300000