3
charge=0, multiplicity=1, basis=def2-QZVPPD, AUX_BASIS_CORR=rimp2-def2-QZVPPD, SCF_ALGORITHM=GDM, xc_grid=000099000590, mem_total=3750, num_basis=132, num_pairs=9017, num_threads=1
O  0.6242600000  -1.3724950000  -4.0623690000
H  1.0055020000  -0.9277720000  -3.2681400000
H  0.2863840000  -0.6210370000  -4.6016590000