3
charge=0, multiplicity=1, basis=def2-QZVPPD, AUX_BASIS_CORR=rimp2-def2-QZVPPD, SCF_ALGORITHM=GDM, xc_grid=000099000590, mem_total=3750, num_basis=132, num_pairs=9017, num_threads=1
O  -5.6549870000  1.8153610000  -0.0305860000
H  -6.0170340000  0.9349630000  -0.1308490000
H  -5.4222970000  2.0818840000  -0.9199980000