3
charge=0, multiplicity=1, basis=def2-QZVPPD, AUX_BASIS_CORR=rimp2-def2-QZVPPD, SCF_ALGORITHM=GDM, xc_grid=000099000590, mem_total=3750, num_basis=132, num_pairs=9017, num_threads=1
O  -7.8300120000  -0.6548770000  2.2775500000
H  -7.6385120000  0.2786450000  2.3675300000
H  -8.7451130000  -0.7390460000  2.5453920000