3
charge=0, multiplicity=1, basis=def2-QZVPPD, AUX_BASIS_CORR=rimp2-def2-QZVPPD, SCF_ALGORITHM=GDM, xc_grid=000099000590, mem_total=3750, num_basis=132, num_pairs=9017, num_threads=1
O  -0.1914350000  1.1369790000  -5.0614170000
H  0.6866850000  1.5272990000  -5.1883700000
H  -0.3900820000  1.3569790000  -4.1162020000