3
charge=0, multiplicity=1, basis=def2-QZVPPD, AUX_BASIS_CORR=rimp2-def2-QZVPPD, SCF_ALGORITHM=GDM, xc_grid=000099000590, mem_total=3750, num_basis=132, num_pairs=9017, num_threads=1
O  -1.7441770000  -0.5922170000  -0.8777080000
H  -1.3471840000  -0.0195530000  -1.5716070000
H  -0.9494900000  -1.0140190000  -0.4521750000