3
charge=0, multiplicity=1, basis=def2-QZVPPD, AUX_BASIS_CORR=rimp2-def2-QZVPPD, SCF_ALGORITHM=GDM, xc_grid=000099000590, mem_total=3750, num_basis=132, num_pairs=9017, num_threads=1
O  -6.9954610000  1.8989760000  2.4307690000
H  -6.6035270000  2.1199040000  1.5858960000
H  -6.2565900000  1.8735080000  3.0387620000