3
charge=0, multiplicity=1, basis=def2-QZVPPD, AUX_BASIS_CORR=rimp2-def2-QZVPPD, SCF_ALGORITHM=GDM, xc_grid=000099000590, mem_total=3750, num_basis=132, num_pairs=9017, num_threads=1
O  -3.4682010000  1.1197210000  1.4604050000
H  -4.1050550000  1.5248390000  0.8717370000
H  -3.8343530000  1.2484950000  2.3353800000