3
charge=0, multiplicity=1, basis=def2-QZVPPD, AUX_BASIS_CORR=rimp2-def2-QZVPPD, SCF_ALGORITHM=GDM, xc_grid=000099000590, mem_total=3750, num_basis=132, num_pairs=9017, num_threads=1
O  -0.6825560000  1.9480720000  0.2395120000
H  -1.2251070000  1.1344550000  0.1905030000
H  0.2177010000  1.6169600000  0.4887070000