3
charge=0, multiplicity=1, basis=def2-QZVPPD, AUX_BASIS_CORR=rimp2-def2-QZVPPD, SCF_ALGORITHM=GDM, xc_grid=000099000590, mem_total=3750, num_basis=132, num_pairs=9017, num_threads=1
O  -2.3847420000  0.9804220000  -1.9903770000
H  -2.7067240000  0.0795230000  -1.9597100000
H  -3.1443290000  1.4977760000  -2.2579690000