3
charge=0, multiplicity=1, basis=def2-QZVPPD, AUX_BASIS_CORR=rimp2-def2-QZVPPD, SCF_ALGORITHM=GDM, xc_grid=000099000590, mem_total=3750, num_basis=132, num_pairs=9017, num_threads=1
O  -0.8215840000  0.3919620000  1.6174770000
H  -0.3957840000  0.5170370000  0.7693720000
H  -1.6797540000  0.8041950000  1.5182770000