3
charge=0, multiplicity=1, basis=def2-QZVPPD, AUX_BASIS_CORR=rimp2-def2-QZVPPD, SCF_ALGORITHM=GDM, xc_grid=000099000590, mem_total=3750, num_basis=132, num_pairs=9017, num_threads=1
O  1.8546880000  0.8077910000  0.6194240000
H  1.5396790000  -0.0770370000  0.8961130000
H  2.0618290000  0.6213910000  -0.3236210000