3
charge=0, multiplicity=1, basis=def2-QZVPPD, AUX_BASIS_CORR=rimp2-def2-QZVPPD, SCF_ALGORITHM=GDM, xc_grid=000099000590, mem_total=3750, num_basis=132, num_pairs=9017, num_threads=1
O  -6.4932280000  -0.7914710000  -0.1357710000
H  -7.1137530000  -0.8351480000  0.5917420000
H  -5.7084050000  -1.2309990000  0.1914930000