3
charge=0, multiplicity=1, basis=def2-QZVPPD, AUX_BASIS_CORR=rimp2-def2-QZVPPD, SCF_ALGORITHM=GDM, xc_grid=000099000590, mem_total=3750, num_basis=132, num_pairs=9017, num_threads=1
O  -1.2966800000  -2.8676210000  -2.6833080000
H  -1.6500450000  -2.1862630000  -2.0729400000
H  -0.7095370000  -2.3518260000  -3.2854970000