3
charge=0, multiplicity=1, basis=def2-QZVPPD, AUX_BASIS_CORR=rimp2-def2-QZVPPD, SCF_ALGORITHM=GDM, xc_grid=000099000590, mem_total=3750, num_basis=132, num_pairs=9017, num_threads=1
O  -5.6215870000  -0.5589720000  -2.7930070000
H  -4.8196900000  -1.0630000000  -2.6546210000
H  -6.1530000000  -0.7355350000  -2.0166960000