3
charge=0, multiplicity=1, basis=def2-QZVPPD, AUX_BASIS_CORR=rimp2-def2-QZVPPD, SCF_ALGORITHM=GDM, xc_grid=000099000590, mem_total=3750, num_basis=132, num_pairs=9017, num_threads=1
O  -0.5942720000  -0.0664700000  4.3502880000
H  -0.6225280000  -1.0227740000  4.3199770000
H  -0.5285430000  0.2008580000  3.4335290000