3
charge=0, multiplicity=1, basis=def2-QZVPPD, AUX_BASIS_CORR=rimp2-def2-QZVPPD, SCF_ALGORITHM=GDM, xc_grid=000099000590, mem_total=3750, num_basis=132, num_pairs=9017, num_threads=1
O  -1.1513740000  -2.7906650000  4.1980430000
H  -1.9998490000  -2.6126630000  4.6037970000
H  -0.7892230000  -3.5157520000  4.7072840000