3
charge=0, multiplicity=1, basis=def2-QZVPPD, AUX_BASIS_CORR=rimp2-def2-QZVPPD, SCF_ALGORITHM=GDM, xc_grid=000099000590, mem_total=3750, num_basis=132, num_pairs=9017, num_threads=1
O  -0.6709960000  -2.2363820000  -1.1692380000
H  -0.2614620000  -1.3712690000  -1.1595610000
H  -0.8015920000  -2.4504250000  -0.2454610000