3
charge=0, multiplicity=1, basis=def2-QZVPPD, AUX_BASIS_CORR=rimp2-def2-QZVPPD, SCF_ALGORITHM=GDM, xc_grid=000099000590, mem_total=3750, num_basis=132, num_pairs=9017, num_threads=1
O  0.6251820000  -1.5941330000  0.0139660000
H  1.0581800000  -1.1628810000  -0.7670580000
H  0.6866620000  -2.5636730000  -0.2151400000