8
charge=1, multiplicity=1, basis=def2-QZVPPD, AUX_BASIS_CORR=rimp2-def2-QZVPPD, SCF_ALGORITHM=GDM, xc_grid=000099000590, mem_total=3750, num_basis=389, num_pairs=74235, num_threads=1
N  -0.5439710000  -1.0359180000  0.0000000000
H  -1.1342300000  -1.1533280000  0.8257640000
Br  0.0000000000  0.8111820000  0.0000000000
C  0.5917610000  -2.0174260000  0.0000000000
H  0.1543300000  -3.0152320000  0.0000000000
H  1.1856780000  -1.8567420000  -0.8937950000
H  1.1856780000  -1.8567420000  0.8937950000
H  -1.1342300000  -1.1533280000  -0.8257640000