5
charge=0, multiplicity=1, basis=def2-QZVPPD, AUX_BASIS_CORR=rimp2-def2-QZVPPD, SCF_ALGORITHM=GDM, xc_grid=000099000590, mem_total=3750, num_basis=274, num_pairs=37921, num_threads=1
C  0.0000000000  0.7917040000  0.0000000000
H  -0.5532450000  1.7295730000  0.0000000000
H  0.9956360000  -0.5616640000  0.0000000000
O  1.2619690000  0.7764270000  0.0000000000
S  -0.6586340000  -0.7580970000  0.0000000000