13
charge=0, multiplicity=1, basis=def2-QZVPPD, AUX_BASIS_CORR=rimp2-def2-QZVPPD, SCF_ALGORITHM=GDM, xc_grid=000099000590, mem_total=7500, num_basis=658, num_pairs=194862, num_threads=2
C  1.1183740000  0.1808490000  0.0310490000
C  -1.3559350000  -0.0304210000  -0.3236500000
H  -1.9594440000  -0.1699760000  -1.2170800000
O  -0.7457310000  1.2812090000  -0.4708590000
N  0.5897850000  1.3372090000  -0.0579250000
S  0.0657030000  -1.1916410000  -0.3184190000
N  -2.1716960000  -0.2022820000  0.8257340000
H  -1.6664340000  -0.0545470000  1.6898790000
H  -2.9893260000  0.3944660000  0.7988600000
C  2.5488250000  -0.0061950000  0.4100490000
H  2.6364570000  -0.5736000000  1.3373490000
H  3.0821750000  -0.5564340000  -0.3668590000
H  3.0169670000  0.9667740000  0.5400740000