3
charge=0, multiplicity=1, basis=def2-QZVPPD, AUX_BASIS_CORR=rimp2-def2-QZVPPD, SCF_ALGORITHM=GDM, xc_grid=000099000590, mem_total=3750, num_basis=211, num_pairs=22409, num_threads=1
S  0.4581676307  -0.2276278759  0.0000000000
F  2.1882570324  -0.2752322992  0.0000000000
F  0.5071861418  1.4046175580  0.0000000000