3
charge=0, multiplicity=1, basis=def2-QZVPPD, mem_total=3750, AUX_BASIS_CORR=rimp2-def2-QZVPPD, SCF_ALGORITHM=GDM, xc_grid=000099000590, num_basis=145, num_pairs=10840, num_threads=1
S  0.0000000000  0.0000000000  4.8000000000
H  -1.2962646223  0.0000000000  4.4782463847
H  0.3694855065  0.0000000000  3.5165250994