7
charge=0, multiplicity=1, basis=def2-QZVPPD, AUX_BASIS_CORR=rimp2-def2-QZVPPD, SCF_ALGORITHM=GDM, xc_grid=000099000590, mem_total=3750, num_basis=324, num_pairs=50541, num_threads=1
O  0.0000000000  0.0000000000  -0.2035110000
C  0.6065690000  0.0000000000  3.1871600000
C  -0.6065690000  0.0000000000  3.1871600000
H  1.6697460000  0.0000000000  3.1902150000
H  -1.6697460000  0.0000000000  3.1902150000
H  0.0000000000  -0.7507790000  0.3980870000
H  0.0000000000  0.7507790000  0.3980870000