24
charge=0, multiplicity=1, basis=def2-QZVPPD, mem_total=60000, AUX_BASIS_CORR=rimp2-def2-QZVPPD, SCF_ALGORITHM=GDM, xc_grid=000099000590, num_basis=1512, num_pairs=1068948, num_threads=16
C  -0.5630410000  2.2152370000  0.3783490000
C  -2.1999720000  0.6200110000  0.3783490000
C  -1.6369310000  -1.5952260000  0.3783490000
C  0.5630410000  -2.2152370000  0.3783490000
C  2.1999720000  -0.6200110000  0.3783490000
C  1.6369310000  1.5952260000  0.3783490000
C  2.1999720000  0.6200110000  -0.3783490000
C  0.5630410000  2.2152370000  -0.3783490000
C  -1.6369310000  1.5952260000  -0.3783490000
C  -2.1999720000  -0.6200110000  -0.3783490000
C  -0.5630410000  -2.2152370000  -0.3783490000
C  1.6369310000  -1.5952260000  -0.3783490000
C  -0.3382180000  1.3730410000  1.6244310000
C  -1.3581970000  0.3936150000  1.6244310000
C  -1.0199790000  -0.9794260000  1.6244310000
C  0.3382180000  -1.3730410000  1.6244310000
C  1.3581970000  -0.3936150000  1.6244310000
C  1.0199790000  0.9794260000  1.6244310000
C  1.3581970000  0.3936150000  -1.6244310000
C  0.3382180000  1.3730410000  -1.6244310000
C  -1.0199790000  0.9794260000  -1.6244310000
C  -1.3581970000  -0.3936150000  -1.6244310000
C  -0.3382180000  -1.3730410000  -1.6244310000
C  1.0199790000  -0.9794260000  -1.6244310000