5
charge=0, multiplicity=1, basis=def2-QZVPPD, AUX_BASIS_CORR=rimp2-def2-QZVPPD, SCF_ALGORITHM=GDM, xc_grid=000099000590, mem_total=3750, num_basis=336, num_pairs=46946, num_threads=1
Cl  0.0000000000  0.0000000000  2.3373020000
Br  0.0000000000  0.0000000000  0.1739280000
N  0.0000000000  0.0000000000  -2.6192340000
C  0.0000000000  0.0000000000  -3.7741920000
H  0.0000000000  0.0000000000  -4.8418210000