7
charge=0, multiplicity=1, basis=def2-QZVPPD, AUX_BASIS_CORR=rimp2-def2-QZVPPD, SCF_ALGORITHM=GDM, xc_grid=000099000590, mem_total=3750, num_basis=294, num_pairs=41178, num_threads=1
O  -1.4769544470  0.0000000000  0.0578881880
N  1.4612384290  0.0000000000  -0.0142858860
H  -1.8503880440  0.0000000000  -0.8242059920
H  -0.5158448000  0.0000000000  -0.0775430970
H  1.6532342220  0.0000000000  0.9806662020
H  1.9256684480  0.8134214430  -0.3996378080
H  1.9256684480  -0.8134214430  -0.3996378080