3
charge=0, multiplicity=1, basis=def2-QZVPPD, AUX_BASIS_CORR=rimp2-def2-QZVPPD, SCF_ALGORITHM=GDM, xc_grid=000099000590, mem_total=3750, num_basis=132, num_pairs=9017, num_threads=1
O  -5.4552970000  0.7522250000  2.3999160000
H  -5.3753020000  1.7058870000  2.4189690000
H  -6.3977460000  0.5896080000  2.4396440000