3
charge=0, multiplicity=1, basis=def2-QZVPPD, AUX_BASIS_CORR=rimp2-def2-QZVPPD, SCF_ALGORITHM=GDM, xc_grid=000099000590, mem_total=3750, num_basis=132, num_pairs=9017, num_threads=1
O  0.6183770000  4.4984740000  3.1898290000
H  0.0865180000  4.8829210000  3.8866500000
H  -0.0186960000  4.1531750000  2.5644180000