3
charge=0, multiplicity=1, basis=def2-QZVPPD, AUX_BASIS_CORR=rimp2-def2-QZVPPD, SCF_ALGORITHM=GDM, xc_grid=000099000590, mem_total=3750, num_basis=132, num_pairs=9017, num_threads=1
O  0.7505110000  -3.6733800000  -0.8075970000
H  0.2754170000  -3.8020230000  -1.6648160000
H  1.6529960000  -3.3802960000  -1.0814030000