3
charge=0, multiplicity=1, basis=def2-QZVPPD, AUX_BASIS_CORR=rimp2-def2-QZVPPD, SCF_ALGORITHM=GDM, xc_grid=000099000590, mem_total=3750, num_basis=132, num_pairs=9017, num_threads=1
O  0.0246100000  -1.1333680000  -0.3223470000
H  0.5356220000  -0.8338080000  -1.1212490000
H  0.1643700000  -2.1253180000  -0.3455120000