3
charge=0, multiplicity=1, basis=def2-QZVPPD, AUX_BASIS_CORR=rimp2-def2-QZVPPD, SCF_ALGORITHM=GDM, xc_grid=000099000590, mem_total=3750, num_basis=132, num_pairs=9017, num_threads=1
O  0.2913080000  1.5776440000  0.6076200000
H  -0.0977590000  0.6826950000  0.5394470000
H  1.2472160000  1.3651600000  0.5837530000