3
charge=0, multiplicity=1, basis=def2-QZVPPD, AUX_BASIS_CORR=rimp2-def2-QZVPPD, SCF_ALGORITHM=GDM, xc_grid=000099000590, mem_total=3750, num_basis=132, num_pairs=9017, num_threads=1
O  3.7726280000  3.8837530000  5.5727110000
H  3.3024130000  4.2458960000  6.3236990000
H  4.6691560000  3.7639400000  5.8859440000