3
charge=0, multiplicity=1, basis=def2-QZVPPD, AUX_BASIS_CORR=rimp2-def2-QZVPPD, SCF_ALGORITHM=GDM, xc_grid=000099000590, mem_total=3750, num_basis=132, num_pairs=9017, num_threads=1
O  -0.5269140000  1.6599750000  -5.0889740000
H  -0.4495850000  0.6958970000  -4.9601100000
H  -0.4718050000  2.0010390000  -4.1793190000