3
charge=0, multiplicity=1, basis=def2-QZVPPD, AUX_BASIS_CORR=rimp2-def2-QZVPPD, SCF_ALGORITHM=GDM, xc_grid=000099000590, mem_total=3750, num_basis=132, num_pairs=9017, num_threads=1
O  -1.5249660000  3.3407700000  1.9438460000
H  -2.0829640000  3.4471640000  1.1734230000
H  -2.0656820000  3.6397320000  2.6749280000