3
charge=0, multiplicity=1, basis=def2-QZVPPD, AUX_BASIS_CORR=rimp2-def2-QZVPPD, SCF_ALGORITHM=GDM, xc_grid=000099000590, mem_total=3750, num_basis=132, num_pairs=9017, num_threads=1
O  1.2835710000  7.0780970000  5.9922050000
H  1.8523220000  6.7993820000  5.2745200000
H  1.4262240000  8.0222720000  6.0586600000