3
charge=0, multiplicity=1, basis=def2-QZVPPD, AUX_BASIS_CORR=rimp2-def2-QZVPPD, SCF_ALGORITHM=GDM, xc_grid=000099000590, mem_total=3750, num_basis=132, num_pairs=9017, num_threads=1
O  -3.6029980000  0.6442990000  0.3239890000
H  -4.3075770000  0.5387120000  0.9632480000
H  -2.8044200000  0.4419680000  0.8113990000