3
charge=0, multiplicity=1, basis=def2-QZVPPD, AUX_BASIS_CORR=rimp2-def2-QZVPPD, SCF_ALGORITHM=GDM, xc_grid=000099000590, mem_total=3750, num_basis=132, num_pairs=9017, num_threads=1
O  -3.3787550000  2.1322670000  5.6799720000
H  -2.7880670000  1.8811070000  6.3900700000
H  -3.4176880000  1.3600360000  5.1157240000