3
charge=0, multiplicity=1, basis=def2-QZVPPD, AUX_BASIS_CORR=rimp2-def2-QZVPPD, SCF_ALGORITHM=GDM, xc_grid=000099000590, mem_total=3750, num_basis=132, num_pairs=9017, num_threads=1
O  -3.3144530000  0.0008860000  3.9710520000
H  -4.1537200000  0.1207370000  3.5266430000
H  -2.6585400000  0.2004230000  3.3030730000