3
charge=0, multiplicity=1, basis=def2-QZVPPD, AUX_BASIS_CORR=rimp2-def2-QZVPPD, SCF_ALGORITHM=GDM, xc_grid=000099000590, mem_total=3750, num_basis=132, num_pairs=9017, num_threads=1
O  -1.4842090000  1.2206950000  7.4764360000
H  -1.3314350000  0.4821350000  6.8870100000
H  -1.7156990000  0.8164800000  8.3126510000