3
charge=0, multiplicity=1, basis=def2-QZVPPD, AUX_BASIS_CORR=rimp2-def2-QZVPPD, SCF_ALGORITHM=GDM, xc_grid=000099000590, mem_total=3750, num_basis=132, num_pairs=9017, num_threads=1
O  3.1039580000  -2.3755310000  -1.6395210000
H  2.5848470000  -1.6750880000  -2.1025450000
H  3.4025470000  -1.8858490000  -0.8526070000