3
charge=0, multiplicity=1, basis=def2-QZVPPD, AUX_BASIS_CORR=rimp2-def2-QZVPPD, SCF_ALGORITHM=GDM, xc_grid=000099000590, mem_total=3750, num_basis=132, num_pairs=9017, num_threads=1
O  -5.0473210000  3.4221330000  2.2669280000
H  -4.5798360000  3.5412480000  1.4401860000
H  -4.4886810000  3.8418450000  2.9211420000