3
charge=0, multiplicity=1, basis=def2-QZVPPD, AUX_BASIS_CORR=rimp2-def2-QZVPPD, SCF_ALGORITHM=GDM, xc_grid=000099000590, mem_total=3750, num_basis=132, num_pairs=9017, num_threads=1
O  -0.3073590000  -1.1318780000  -4.0249560000
H  0.4914770000  -0.8539540000  -3.5131890000
H  -1.0460700000  -0.8364440000  -3.4276980000