3
charge=0, multiplicity=1, basis=def2-QZVPPD, AUX_BASIS_CORR=rimp2-def2-QZVPPD, SCF_ALGORITHM=GDM, xc_grid=000099000590, mem_total=3750, num_basis=132, num_pairs=9017, num_threads=1
O  1.6445510000  2.4147190000  4.5939740000
H  2.4802160000  2.7679110000  4.8991840000
H  1.2972960000  3.0897760000  4.0109270000