7
charge=1, multiplicity=2, basis=def2-QZVPPD, AUX_BASIS_CORR=rimp2-def2-QZVPPD, SCF_ALGORITHM=GDM, xc_grid=000099000590, mem_total=3750, num_basis=291, num_pairs=42989, num_threads=1
C  -0.0119660000  -0.7032430000  0.0000000000
H  -0.4597210000  -1.0930900000  0.9138290000
H  1.0505410000  -1.0397550000  0.0000000000
H  -0.4597210000  -1.0930900000  -0.9138290000
N  -0.0119660000  0.7083620000  0.0000000000
H  0.0122280000  1.2434310000  0.8677720000
H  0.0122280000  1.2434310000  -0.8677720000