6
charge=0, multiplicity=1, basis=def2-QZVPPD, AUX_BASIS_CORR=rimp2-def2-QZVPPD, SCF_ALGORITHM=GDM, xc_grid=000099000590, mem_total=3750, num_basis=304, num_pairs=46476, num_threads=1
C  0.0000000000  0.7959410000  0.0000000000
H  -0.5408160000  1.7373470000  0.0000000000
H  1.8952430000  1.4940190000  0.0000000000
H  0.9648870000  -0.6856340000  0.0000000000
N  1.2896210000  0.6763590000  0.0000000000
S  -0.7091660000  -0.7534930000  0.0000000000