9
charge=0, multiplicity=1, basis=def2-QZVPPD, AUX_BASIS_CORR=rimp2-def2-QZVPPD, SCF_ALGORITHM=GDM, xc_grid=000099000590, mem_total=3750, num_basis=450, num_pairs=81128, num_threads=1
C  -0.1247390000  0.0000000000  0.2206310000
C  0.0065420000  0.0000000000  1.5833320000
C  -0.2417630000  0.0000000000  -0.9952760000
H  -0.3445610000  0.0000000000  -2.0590250000
C  0.1235750000  0.0000000000  2.7983620000
H  0.2255320000  0.0000000000  3.8561220000
O  -0.5535210000  0.0000000000  -4.2003730000
H  -0.6479710000  -0.7607680000  -4.7809960000
H  -0.6479710000  0.7607680000  -4.7809960000