4
charge=0, multiplicity=2, basis=def2-QZVPPD, AUX_BASIS_CORR=rimp2-def2-QZVPPD, SCF_ALGORITHM=GDM, xc_grid=000099000590, mem_total=3750, num_basis=208, num_pairs=21950, num_threads=1
Al  0.0000000000  0.0000000000  0.0000000000
O  0.0000000000  0.0000000000  2.2162851802
H  0.8010116452  0.0000000000  2.7470422864
H  -0.7087683445  0.3731850607  2.7470422864