3
charge=0, multiplicity=1, basis=def2-QZVPPD, AUX_BASIS_CORR=rimp2-def2-QZVPPD, SCF_ALGORITHM=GDM, xc_grid=000099000590, mem_total=3750, num_basis=132, num_pairs=9017, num_threads=1
O  -0.3981780000  1.4900850000  -4.9086990000
H  -0.0214160000  0.5939720000  -4.8293750000
H  -0.4386490000  1.7922840000  -3.9848540000