3
charge=0, multiplicity=1, basis=def2-QZVPPD, AUX_BASIS_CORR=rimp2-def2-QZVPPD, SCF_ALGORITHM=GDM, xc_grid=000099000590, mem_total=3750, num_basis=132, num_pairs=9017, num_threads=1
O  2.7221870000  0.4121350000  10.4485290000
H  1.7913950000  0.5893050000  10.5844290000
H  3.1567900000  1.2392170000  10.6565850000