3
charge=0, multiplicity=1, basis=def2-QZVPPD, AUX_BASIS_CORR=rimp2-def2-QZVPPD, SCF_ALGORITHM=GDM, xc_grid=000099000590, mem_total=3750, num_basis=132, num_pairs=9017, num_threads=1
O  3.1482420000  -4.9213900000  12.1607470000
H  2.2338130000  -4.7224170000  11.9595980000
H  3.5362800000  -4.0736030000  12.3773500000