3
charge=0, multiplicity=1, basis=def2-QZVPPD, AUX_BASIS_CORR=rimp2-def2-QZVPPD, SCF_ALGORITHM=GDM, xc_grid=000099000590, mem_total=3750, num_basis=132, num_pairs=9017, num_threads=1
O  5.2301360000  -3.0427010000  9.7932230000
H  5.1129770000  -3.9924910000  9.8133670000
H  5.1717280000  -2.8133070000  8.8657530000