3
charge=0, multiplicity=1, basis=def2-QZVPPD, AUX_BASIS_CORR=rimp2-def2-QZVPPD, SCF_ALGORITHM=GDM, xc_grid=000099000590, mem_total=3750, num_basis=132, num_pairs=9017, num_threads=1
O  -2.6242210000  -3.2682350000  -2.6265350000
H  -2.4645130000  -2.2949560000  -2.6268940000
H  -2.9230200000  -3.4349600000  -1.7197800000