3
charge=0, multiplicity=1, basis=def2-QZVPPD, AUX_BASIS_CORR=rimp2-def2-QZVPPD, SCF_ALGORITHM=GDM, xc_grid=000099000590, mem_total=3750, num_basis=132, num_pairs=9017, num_threads=1
O  3.3529220000  -2.0543220000  11.4948910000
H  3.1976260000  -1.1414350000  11.2525000000
H  4.0577590000  -2.3403400000  10.9138310000