3
charge=0, multiplicity=1, basis=def2-QZVPPD, AUX_BASIS_CORR=rimp2-def2-QZVPPD, SCF_ALGORITHM=GDM, xc_grid=000099000590, mem_total=3750, num_basis=132, num_pairs=9017, num_threads=1
O  3.1267620000  -4.8538520000  7.6622700000
H  3.5591000000  -5.2861350000  8.3987800000
H  3.6709900000  -4.0876600000  7.4806100000