3
charge=0, multiplicity=1, basis=def2-QZVPPD, AUX_BASIS_CORR=rimp2-def2-QZVPPD, SCF_ALGORITHM=GDM, xc_grid=000099000590, mem_total=3750, num_basis=132, num_pairs=9017, num_threads=1
O  -0.9122320000  -2.6235620000  6.9124010000
H  -0.7660800000  -3.0942330000  6.0918280000
H  -0.2454210000  -2.9661120000  7.5075950000