3
charge=0, multiplicity=1, basis=def2-QZVPPD, AUX_BASIS_CORR=rimp2-def2-QZVPPD, SCF_ALGORITHM=GDM, xc_grid=000099000590, mem_total=3750, num_basis=132, num_pairs=9017, num_threads=1
O  -0.2596090000  1.5151700000  -1.9416530000
H  -0.2763110000  1.5763360000  -0.9532220000
H  0.5847470000  1.0206790000  -2.0907830000