3
charge=0, multiplicity=1, basis=def2-QZVPPD, AUX_BASIS_CORR=rimp2-def2-QZVPPD, SCF_ALGORITHM=GDM, xc_grid=000099000590, mem_total=3750, num_basis=132, num_pairs=9017, num_threads=1
O  2.4406350000  -0.9362510000  8.0691890000
H  2.5917420000  -0.4401760000  8.8737440000
H  1.9813610000  -1.7253970000  8.3565030000