3
charge=0, multiplicity=1, basis=def2-QZVPPD, AUX_BASIS_CORR=rimp2-def2-QZVPPD, SCF_ALGORITHM=GDM, xc_grid=000099000590, mem_total=3750, num_basis=132, num_pairs=9017, num_threads=1
O  0.0739830000  0.7754840000  10.6834430000
H  -0.3512940000  -0.0147860000  11.0163790000
H  -0.3901740000  0.9732520000  9.8700070000