3
charge=0, multiplicity=1, basis=def2-QZVPPD, AUX_BASIS_CORR=rimp2-def2-QZVPPD, SCF_ALGORITHM=GDM, xc_grid=000099000590, mem_total=3750, num_basis=132, num_pairs=9017, num_threads=1
O  4.4534150000  -2.5252860000  7.1590540000
H  4.3995350000  -2.5164390000  6.2034120000
H  3.8264510000  -1.8591900000  7.4409480000