3
charge=0, multiplicity=1, basis=def2-QZVPPD, AUX_BASIS_CORR=rimp2-def2-QZVPPD, SCF_ALGORITHM=GDM, xc_grid=000099000590, mem_total=3750, num_basis=132, num_pairs=9017, num_threads=1
O  0.2007070000  -3.6206100000  -2.4598460000
H  -0.7768770000  -3.6735940000  -2.5606900000
H  0.4538020000  -2.9690170000  -3.1540140000