3
charge=0, multiplicity=1, basis=def2-QZVPPD, AUX_BASIS_CORR=rimp2-def2-QZVPPD, SCF_ALGORITHM=GDM, xc_grid=000099000590, mem_total=3750, num_basis=132, num_pairs=9017, num_threads=1
O  3.4084720000  -1.5454120000  -0.2531310000
H  3.1521650000  -1.1360920000  -1.1071310000
H  2.5407150000  -1.8823200000  0.0399090000