3
charge=0, multiplicity=1, basis=def2-QZVPPD, AUX_BASIS_CORR=rimp2-def2-QZVPPD, SCF_ALGORITHM=GDM, xc_grid=000099000590, mem_total=3750, num_basis=132, num_pairs=9017, num_threads=1
O  -1.1246950000  -1.6160220000  11.3671180000
H  -1.5863980000  -1.6233140000  10.5286610000
H  -1.8190920000  -1.6676140000  12.0239160000