3
charge=0, multiplicity=1, basis=def2-QZVPPD, AUX_BASIS_CORR=rimp2-def2-QZVPPD, SCF_ALGORITHM=GDM, xc_grid=000099000590, mem_total=3750, num_basis=132, num_pairs=9017, num_threads=1
O  1.1311260000  -3.2623640000  8.5771010000
H  1.0337110000  -3.4053680000  9.5185320000
H  1.7643170000  -3.9237900000  8.2981430000