10
charge=0, multiplicity=1, basis=def2-QZVPPD, AUX_BASIS_CORR=rimp2-def2-QZVPPD, SCF_ALGORITHM=GDM, xc_grid=000099000590, mem_total=3750, num_basis=453, num_pairs=100563, num_threads=1
C  0.0000000000  0.0000000000  0.1843360000
O  0.0000000000  0.0000000000  1.3946380000
C  0.0000000000  1.2877130000  -0.6113770000
H  0.8767580000  1.3298110000  -1.2614640000
H  -0.8767580000  1.3298110000  -1.2614640000
H  0.0000000000  2.1423780000  0.0596310000
C  0.0000000000  -1.2877130000  -0.6113770000
H  -0.8767580000  -1.3298110000  -1.2614640000
H  0.8767580000  -1.3298110000  -1.2614640000
H  0.0000000000  -2.1423780000  0.0596310000