4
charge=0, multiplicity=1, basis=def2-QZVPPD, AUX_BASIS_CORR=rimp2-def2-QZVPPD, SCF_ALGORITHM=GDM, xc_grid=000099000590, mem_total=3750, num_basis=225, num_pairs=25577, num_threads=1
C  0.0000000000  0.0493260000  0.0000000000
N  0.3940280000  -1.0953150000  0.0000000000
H  1.3575160000  -1.3805770000  0.0000000000
O  -0.5144640000  1.0939780000  0.0000000000