12
charge=0, multiplicity=1, basis=def2-QZVPPD, AUX_BASIS_CORR=rimp2-def2-QZVPPD, SCF_ALGORITHM=GDM, xc_grid=000099000590, mem_total=3750, num_basis=576, num_pairs=158334, num_threads=1
C  1.4057310000  0.0000000000  1.0000000000
C  0.7028650000  1.2173990000  1.0000000000
C  -0.7028650000  1.2173990000  1.0000000000
C  -1.4057310000  0.0000000000  1.0000000000
C  -0.7028650000  -1.2173990000  1.0000000000
C  0.7028660000  -1.2173990000  1.0000000000
H  2.5009410000  0.0000000000  1.0000000000
H  1.2504710000  2.1658780000  1.0000000000
H  -1.2504700000  2.1658780000  1.0000000000
H  -2.5009410000  0.0000000000  1.0000000000
H  -1.2504700000  -2.1658780000  1.0000000000
H  1.2504710000  -2.1658780000  1.0000000000