6
charge=0, multiplicity=1, basis=def2-QZVPPD, AUX_BASIS_CORR=rimp2-def2-QZVPPD, SCF_ALGORITHM=GDM, xc_grid=000099000590, mem_total=3750, num_basis=274, num_pairs=33747, num_threads=1
Ar  0.0000000003  0.0000000000  2.0231155514
C  0.0000000003  0.0000000000  -2.0232596398
H  0.5128676203  0.8883127800  -1.6597773098
H  0.5128676203  -0.8883127800  -1.6597773098
H  0.0000000003  0.0000000000  -3.1114146398
H  -1.0257352497  0.0000000000  -1.6597773098