6
charge=0, multiplicity=1, basis=def2-QZVPPD, AUX_BASIS_CORR=rimp2-def2-QZVPPD, SCF_ALGORITHM=GDM, xc_grid=000099000590, mem_total=3750, num_basis=274, num_pairs=35112, num_threads=1
Ar  0.0000000003  0.0000000000  1.8391959558
C  0.0000000003  0.0000000000  -1.8393400442
H  0.5128676203  0.8883127800  -1.4758577142
H  0.5128676203  -0.8883127800  -1.4758577142
H  0.0000000003  0.0000000000  -2.9274950442
H  -1.0257352497  0.0000000000  -1.4758577142