6
charge=0, multiplicity=1, basis=def2-QZVPPD, AUX_BASIS_CORR=rimp2-def2-QZVPPD, SCF_ALGORITHM=GDM, xc_grid=000099000590, mem_total=3750, num_basis=274, num_pairs=36009, num_threads=1
Ar  0.0000000003  0.0000000000  1.6552763602
C  0.0000000003  0.0000000000  -1.6554204486
H  0.5128676203  0.8883127800  -1.2919381186
H  0.5128676203  -0.8883127800  -1.2919381186
H  0.0000000003  0.0000000000  -2.7435754486
H  -1.0257352497  0.0000000000  -1.2919381186