6
charge=0, multiplicity=1, basis=def2-QZVPPD, AUX_BASIS_CORR=rimp2-def2-QZVPPD, SCF_ALGORITHM=GDM, xc_grid=000099000590, mem_total=3750, num_basis=274, num_pairs=32767, num_threads=1
Ar  0.0000000004  0.0000000000  2.2070351469
C  0.0000000003  0.0000000000  -2.2071792354
H  0.5128676203  0.8883127800  -1.8436969054
H  0.5128676203  -0.8883127800  -1.8436969054
H  0.0000000003  0.0000000000  -3.2953342354
H  -1.0257352498  0.0000000000  -1.8436969054