6
charge=0, multiplicity=1, basis=def2-QZVPPD, AUX_BASIS_CORR=rimp2-def2-QZVPPD, SCF_ALGORITHM=GDM, xc_grid=000099000590, mem_total=3750, num_basis=274, num_pairs=29419, num_threads=1
Ar  0.0000000005  0.0000000000  2.9427135293
C  0.0000000001  0.0000000000  -2.9428576177
H  0.5128676201  0.8883127800  -2.5793752877
H  0.5128676201  -0.8883127800  -2.5793752877
H  0.0000000001  0.0000000000  -4.0310126177
H  -1.0257352499  0.0000000000  -2.5793752877