6
charge=0, multiplicity=1, basis=def2-QZVPPD, AUX_BASIS_CORR=rimp2-def2-QZVPPD, SCF_ALGORITHM=GDM, xc_grid=000099000590, mem_total=3750, num_basis=274, num_pairs=30387, num_threads=1
Ar  0.0000000004  0.0000000000  2.5748743381
C  0.0000000002  0.0000000000  -2.5750184265
H  0.5128676202  0.8883127800  -2.2115360965
H  0.5128676202  -0.8883127800  -2.2115360965
H  0.0000000002  0.0000000000  -3.6631734265
H  -1.0257352498  0.0000000000  -2.2115360965