4
charge=-1, multiplicity=1, basis=def2-QZVPPD, AUX_BASIS_CORR=rimp2-def2-QZVPPD, SCF_ALGORITHM=GDM, xc_grid=000099000590, mem_total=3750, num_basis=328, num_pairs=48405, num_threads=1
Br  -2.2531550746  -0.0716210862  0.0000000000
Se  0.4156980631  -0.2904197100  0.0000000000
F  2.2842547181  -0.2891629999  0.0000000000
F  0.4980922933  1.4748237961  0.0000000000