5
charge=0, multiplicity=1, basis=def2-QZVPPD, mem_total=3750, AUX_BASIS_CORR=rimp2-def2-QZVPPD, SCF_ALGORITHM=GDM, xc_grid=000099000590, num_basis=208, num_pairs=22094, num_threads=1
Si  0.0000000000  0.0000000000  5.2000000000
H  0.0000000000  0.0000000000  3.7266000000
H  1.2030260626  0.6945674211  5.6911333325
H  -1.3891348422  0.0000000000  5.6911333325
H  0.6945674211  -1.2030260626  5.6911333325