5
charge=0, multiplicity=1, basis=def2-QZVPPD, AUX_BASIS_CORR=rimp2-def2-QZVPPD, SCF_ALGORITHM=GDM, xc_grid=000099000590, mem_total=3750, num_basis=228, num_pairs=26522, num_threads=1
C  0.0000000000  0.0000000000  0.0655663611
F  0.0000000000  0.0000000000  -1.3156284932
H  0.5149162959  -0.8918611861  0.4166873774
H  0.5149162959  0.8918611861  0.4166873774
H  -1.0298325917  0.0000000000  0.4166873774