4
charge=1, multiplicity=2, basis=def2-QZVPPD, AUX_BASIS_CORR=rimp2-def2-QZVPPD, SCF_ALGORITHM=GDM, xc_grid=000099000590, mem_total=3750, num_basis=168, num_pairs=14478, num_threads=1
O  0.0000000000  0.0000000000  0.0000000000
Be  0.0000000000  0.0000000000  1.5675009237
H  0.7942761613  0.0000000000  -0.5616466170
H  -0.7942761643  0.0000000000  -0.5616466123