7
charge=1, multiplicity=1, basis=def2-QZVPPD, AUX_BASIS_CORR=rimp2-def2-QZVPPD, SCF_ALGORITHM=GDM, xc_grid=000099000590, mem_total=3750, num_basis=297, num_pairs=43291, num_threads=1
H  0.0000000000  0.0000000000  0.0250356327
O  -0.0005013470  1.1931123842  -0.0391099401
O  0.0005013470  -1.1931123842  -0.0391099401
H  -0.2489621765  1.6954459991  0.7468112440
H  0.2489621765  -1.6954459991  0.7468112440
H  0.7737215334  1.6038999604  -0.4449551201
H  -0.7737215334  -1.6038999604  -0.4449551201