3
charge=0, multiplicity=1, basis=def2-QZVPPD, AUX_BASIS_CORR=rimp2-def2-QZVPPD, SCF_ALGORITHM=GDM, xc_grid=000099000590, mem_total=3750, num_basis=132, num_pairs=9017, num_threads=1
O  3.8499730000  -1.2631300000  -2.4960810000
H  3.2005540000  -1.6060120000  -1.8465980000
H  3.2833190000  -1.2205820000  -3.2890100000