3
charge=0, multiplicity=1, basis=def2-QZVPPD, AUX_BASIS_CORR=rimp2-def2-QZVPPD, SCF_ALGORITHM=GDM, xc_grid=000099000590, mem_total=3750, num_basis=132, num_pairs=9017, num_threads=1
O  -4.6898170000  2.5552050000  3.9897120000
H  -4.0049540000  2.4243570000  4.6455130000
H  -5.0589430000  1.6830190000  3.8508910000