3
charge=0, multiplicity=1, basis=def2-QZVPPD, AUX_BASIS_CORR=rimp2-def2-QZVPPD, SCF_ALGORITHM=GDM, xc_grid=000099000590, mem_total=3750, num_basis=132, num_pairs=9017, num_threads=1
O  -3.5722370000  -0.8025060000  5.0224360000
H  -3.3218910000  0.0496990000  5.3792370000
H  -4.3811710000  -0.6323670000  4.5398270000