3
charge=0, multiplicity=1, basis=def2-QZVPPD, AUX_BASIS_CORR=rimp2-def2-QZVPPD, SCF_ALGORITHM=GDM, xc_grid=000099000590, mem_total=3750, num_basis=132, num_pairs=9017, num_threads=1
O  1.1480510000  -1.2838840000  -3.6910190000
H  1.2287060000  -1.3192680000  -2.7007850000
H  0.5039520000  -2.0039770000  -3.8575040000