3
charge=0, multiplicity=1, basis=def2-QZVPPD, AUX_BASIS_CORR=rimp2-def2-QZVPPD, SCF_ALGORITHM=GDM, xc_grid=000099000590, mem_total=3750, num_basis=132, num_pairs=9017, num_threads=1
O  -1.0503560000  -3.0026620000  -3.2842490000
H  -1.5780940000  -2.1712700000  -3.0189890000
H  -1.6576380000  -3.5140630000  -3.8382810000