3
charge=0, multiplicity=1, basis=def2-QZVPPD, AUX_BASIS_CORR=rimp2-def2-QZVPPD, SCF_ALGORITHM=GDM, xc_grid=000099000590, mem_total=3750, num_basis=132, num_pairs=9017, num_threads=1
O  -7.0315480000  3.6428180000  2.8935960000
H  -7.5258430000  2.8231300000  2.8976540000
H  -6.2615170000  3.4613840000  3.4324530000