3
charge=0, multiplicity=1, basis=def2-QZVPPD, AUX_BASIS_CORR=rimp2-def2-QZVPPD, SCF_ALGORITHM=GDM, xc_grid=000099000590, mem_total=3750, num_basis=132, num_pairs=9017, num_threads=1
O  -2.3091310000  -0.8319710000  -2.5326650000
H  -1.8041200000  -0.1225580000  -3.0291460000
H  -1.9390490000  -0.7694980000  -1.6200330000