3
charge=0, multiplicity=1, basis=def2-QZVPPD, AUX_BASIS_CORR=rimp2-def2-QZVPPD, SCF_ALGORITHM=GDM, xc_grid=000099000590, mem_total=3750, num_basis=132, num_pairs=9017, num_threads=1
O  -0.2801660000  2.0209780000  -1.2939480000
H  -1.0554710000  2.2411800000  -1.8103260000
H  0.4300200000  2.5135590000  -1.7053260000