3
charge=0, multiplicity=1, basis=def2-QZVPPD, AUX_BASIS_CORR=rimp2-def2-QZVPPD, SCF_ALGORITHM=GDM, xc_grid=000099000590, mem_total=3750, num_basis=132, num_pairs=9017, num_threads=1
O  0.1980580000  1.4651540000  0.8965530000
H  -0.2508970000  0.6041190000  0.7470870000
H  1.1375510000  1.2785520000  0.7240680000