3
charge=0, multiplicity=1, basis=def2-QZVPPD, AUX_BASIS_CORR=rimp2-def2-QZVPPD, SCF_ALGORITHM=GDM, xc_grid=000099000590, mem_total=3750, num_basis=132, num_pairs=9017, num_threads=1
O  -4.3189440000  0.0137240000  0.9815530000
H  -4.6123220000  0.0613710000  0.0716680000
H  -3.4580640000  -0.4021140000  0.9346670000