3
charge=0, multiplicity=1, basis=def2-QZVPPD, AUX_BASIS_CORR=rimp2-def2-QZVPPD, SCF_ALGORITHM=GDM, xc_grid=000099000590, mem_total=3750, num_basis=132, num_pairs=9017, num_threads=1
O  -0.2055480000  -3.5999430000  -0.6079240000
H  -0.5798020000  -3.5857980000  -1.5151130000
H  0.5999240000  -3.0489940000  -0.7238170000