3
charge=0, multiplicity=1, basis=def2-QZVPPD, AUX_BASIS_CORR=rimp2-def2-QZVPPD, SCF_ALGORITHM=GDM, xc_grid=000099000590, mem_total=3750, num_basis=132, num_pairs=9017, num_threads=1
O  -2.4915940000  2.3663020000  -2.8088380000
H  -2.7189750000  1.4727410000  -3.0658990000
H  -3.3288550000  2.7713790000  -2.5826980000