3
charge=0, multiplicity=1, basis=def2-QZVPPD, AUX_BASIS_CORR=rimp2-def2-QZVPPD, SCF_ALGORITHM=GDM, xc_grid=000099000590, mem_total=3750, num_basis=132, num_pairs=9017, num_threads=1
O  0.5016280000  2.4002270000  -1.7772660000
H  0.1097410000  2.2299120000  -0.8935390000
H  1.3722450000  1.9520280000  -1.6732290000