3
charge=0, multiplicity=1, basis=def2-QZVPPD, AUX_BASIS_CORR=rimp2-def2-QZVPPD, SCF_ALGORITHM=GDM, xc_grid=000099000590, mem_total=3750, num_basis=132, num_pairs=9017, num_threads=1
O  -0.6491040000  0.8774200000  -3.7863300000
H  0.0590410000  0.1973630000  -3.8766130000
H  -0.2996330000  1.4850000000  -3.0848560000