3
charge=0, multiplicity=1, basis=def2-QZVPPD, AUX_BASIS_CORR=rimp2-def2-QZVPPD, SCF_ALGORITHM=GDM, xc_grid=000099000590, mem_total=3750, num_basis=132, num_pairs=9017, num_threads=1
O  -0.8537650000  -0.9361610000  -0.1486850000
H  0.0290810000  -0.9981020000  -0.6000460000
H  -0.9700530000  -1.8919800000  0.0543710000