3
charge=0, multiplicity=1, basis=def2-QZVPPD, AUX_BASIS_CORR=rimp2-def2-QZVPPD, SCF_ALGORITHM=GDM, xc_grid=000099000590, mem_total=3750, num_basis=132, num_pairs=9017, num_threads=1
O  -7.3326040000  1.3735120000  0.0328960000
H  -6.7914260000  0.8520780000  -0.5599500000
H  -6.8500020000  2.1931830000  0.1399820000