3
charge=0, multiplicity=1, basis=def2-QZVPPD, AUX_BASIS_CORR=rimp2-def2-QZVPPD, SCF_ALGORITHM=GDM, xc_grid=000099000590, mem_total=3750, num_basis=132, num_pairs=9017, num_threads=1
O  -3.0823190000  -0.3267990000  -3.1643500000
H  -2.3230320000  -0.5372290000  -2.6208100000
H  -2.9912420000  -0.8906240000  -3.9324900000