3
charge=0, multiplicity=1, basis=def2-QZVPPD, AUX_BASIS_CORR=rimp2-def2-QZVPPD, SCF_ALGORITHM=GDM, xc_grid=000099000590, mem_total=3750, num_basis=132, num_pairs=9017, num_threads=1
O  -8.0897410000  1.0742410000  2.6045970000
H  -7.8975860000  1.1054510000  1.6674010000
H  -9.0088930000  0.8113790000  2.6524970000