9
charge=0, multiplicity=2, basis=def2-QZVPPD, AUX_BASIS_CORR=rimp2-def2-QZVPPD, SCF_ALGORITHM=GDM, xc_grid=000099000590, mem_total=3750, num_basis=387, num_pairs=74221, num_threads=1
N  0.0000000000  0.6298840000  0.0000000000
C  0.0000000000  -0.1690410000  1.1930100000
H  0.0000110000  0.4653310000  2.0778930000
H  -0.8801330000  -0.8278290000  1.2307580000
H  0.8801190000  -0.8278490000  1.2307490000
C  0.0000000000  -0.1690410000  -1.1930100000
H  -0.8801330000  -0.8278290000  -1.2307580000
H  0.0000110000  0.4653310000  -2.0778930000
H  0.8801190000  -0.8278490000  -1.2307490000