6
charge=0, multiplicity=1, basis=def2-QZVPPD, AUX_BASIS_CORR=rimp2-def2-QZVPPD, SCF_ALGORITHM=GDM, xc_grid=000099000590, mem_total=3750, num_basis=307, num_pairs=42504, num_threads=1
N  0.0000000000  0.0000000000  -2.0871280000
H  0.0000000000  0.9489840000  -2.4333340000
H  0.8218440000  -0.4744920000  -2.4333340000
H  -0.8218440000  -0.4744920000  -2.4333340000
Cl  0.0000000000  0.0000000000  0.2610440000
F  0.0000000000  0.0000000000  1.9413510000