8
charge=0, multiplicity=1, basis=def2-QZVPPD, AUX_BASIS_CORR=rimp2-def2-QZVPPD, SCF_ALGORITHM=GDM, xc_grid=000099000590, mem_total=3750, num_basis=393, num_pairs=76206, num_threads=1
C  0.0096090000  1.0838890000  0.0000000000
H  0.0080640000  2.1785590000  0.0000000000
H  0.0120150000  -0.7650880000  0.7795630000
H  0.0120150000  -0.7650880000  -0.7795630000
O  0.0620360000  -1.6144220000  0.0000000000
H  -0.7397820000  -2.1488500000  0.0000000000
O  0.0096090000  0.4945320000  1.1193760000
O  0.0096090000  0.4945320000  -1.1193760000