7
charge=0, multiplicity=1, basis=def2-QZVPPD, AUX_BASIS_CORR=rimp2-def2-QZVPPD, SCF_ALGORITHM=GDM, xc_grid=000099000590, mem_total=3750, num_basis=337, num_pairs=50580, num_threads=1
C  0.0000000000  0.6671807300  -2.1442295633
C  0.0000000000  -0.6671807300  -2.1442295633
H  -0.9240076800  1.2320233300  -2.1437337033
H  0.9240076800  1.2320233300  -2.1437337033
H  -0.9240076800  -1.2320233300  -2.1437337033
H  0.9240076800  -1.2320233300  -2.1437337033
Ar  0.0000000000  0.0000000000  2.1441582515