7
charge=0, multiplicity=1, basis=def2-QZVPPD, AUX_BASIS_CORR=rimp2-def2-QZVPPD, SCF_ALGORITHM=GDM, xc_grid=000099000590, mem_total=3750, num_basis=337, num_pairs=53604, num_threads=1
C  0.0000000000  0.6671807300  -1.7543826085
C  0.0000000000  -0.6671807300  -1.7543826085
H  -0.9240076800  1.2320233300  -1.7538867485
H  0.9240076800  1.2320233300  -1.7538867485
H  -0.9240076800  -1.2320233300  -1.7538867485
H  0.9240076800  -1.2320233300  -1.7538867485
Ar  0.0000000000  0.0000000000  1.7543112967