3
charge=0, multiplicity=1, basis=def2-QZVPPD, AUX_BASIS_CORR=rimp2-def2-QZVPPD, SCF_ALGORITHM=GDM, xc_grid=000099000590, mem_total=3750, num_basis=132, num_pairs=9017, num_threads=1
H  -1.7336180000  -0.4776690000  -0.0108670000
O  -2.5956400000  -0.9082140000  -0.0487140000
H  -2.5240460000  -1.6350040000  0.5765040000