8
charge=0, multiplicity=1, basis=def2-QZVPPD, AUX_BASIS_CORR=rimp2-def2-QZVPPD, SCF_ALGORITHM=GDM, xc_grid=000099000590, mem_total=3750, num_basis=324, num_pairs=53089, num_threads=1
C  0.0000000000  0.0000000000  0.7635800000
C  0.0000000000  0.0000000000  -0.7635800000
H  0.0000000000  1.0163080000  1.1602050000
H  -0.8801480000  -0.5081540000  1.1602050000
H  0.8801480000  -0.5081540000  1.1602050000
H  0.0000000000  -1.0163080000  -1.1602050000
H  -0.8801480000  0.5081540000  -1.1602050000
H  0.8801480000  0.5081540000  -1.1602050000