6
charge=0, multiplicity=2, basis=def2-QZVPPD, AUX_BASIS_CORR=rimp2-def2-QZVPPD, SCF_ALGORITHM=GDM, xc_grid=000099000590, mem_total=3750, num_basis=307, num_pairs=44883, num_threads=1
Cl  1.4547504867  -0.0012369994  -0.0000400000
F  -0.3235871018  0.0046310044  0.0001240000
C  -2.3874200289  -0.0021469989  -0.0000730000
H  -2.4950864242  -0.8553620435  -0.6494062731
H  -2.4973142603  -0.1386730048  1.0631381836
H  -2.5015370944  0.9862699019  -0.4137340272