6
charge=0, multiplicity=1, basis=def2-QZVPPD, AUX_BASIS_CORR=rimp2-def2-QZVPPD, SCF_ALGORITHM=GDM, xc_grid=000099000590, mem_total=3750, num_basis=277, num_pairs=35883, num_threads=1
O  0.0468840000  -2.2938020000  0.0000000000
H  -0.8055110000  -2.7326780000  0.0000000000
H  -0.1799360000  -1.3583450000  0.0000000000
S  -0.0680540000  1.2587550000  0.0000000000
H  0.8496200000  1.1506850000  -0.9609600000
H  0.8496200000  1.1506850000  0.9609600000