4
charge=0, multiplicity=2, basis=def2-QZVPPD, AUX_BASIS_CORR=rimp2-def2-QZVPPD, SCF_ALGORITHM=GDM, xc_grid=000099000590, mem_total=3750, num_basis=230, num_pairs=25387, num_threads=1
Br  0.0000000000  0.0000000000  0.0000000000
O  0.0000000000  0.0000000000  2.7049230935
H  0.9514568132  0.0000000000  2.8405557142
H  -0.2649203354  0.9138311022  2.8405557142