4
charge=1, multiplicity=1, basis=def2-QZVPPD, AUX_BASIS_CORR=rimp2-def2-QZVPPD, SCF_ALGORITHM=GDM, xc_grid=000099000590, mem_total=3750, num_basis=165, num_pairs=13987, num_threads=1
O  0.0000000000  -0.0000000018  0.0851260047
H  0.0000000000  0.9330972192  -0.2027996686
H  0.8080855750  -0.4665486087  -0.2027996680
H  -0.8080855750  -0.4665486087  -0.2027996680