5
charge=0, multiplicity=1, basis=def2-QZVPPD, AUX_BASIS_CORR=rimp2-def2-QZVPPD, SCF_ALGORITHM=GDM, xc_grid=000099000590, mem_total=3750, num_basis=195, num_pairs=19452, num_threads=1
C  0.0000000000  0.0000000000  -3.2000000000
H  0.0000000000  0.0000000000  -4.2995030000
H  -1.0366210000  0.0000000000  -2.8334990000
H  0.5183110000  0.8977410000  -2.8334990000
H  0.5183110000  -0.8977410000  -2.8334990000