9
charge=0, multiplicity=1, basis=def2-QZVPPD, AUX_BASIS_CORR=rimp2-def2-QZVPPD, SCF_ALGORITHM=GDM, xc_grid=000099000590, mem_total=3750, num_basis=450, num_pairs=89423, num_threads=1
O  0.3953340000  0.0000000000  -0.2293910000
C  0.4902020000  0.0000000000  3.1146010000
C  -0.7298980000  0.0000000000  3.1601430000
H  1.5529620000  0.0000000000  3.0715330000
C  -2.0979890000  0.0000000000  3.2034510000
H  0.1196690000  -0.7527770000  0.3026290000
H  0.1196690000  0.7527770000  0.3026290000
C  -3.3176800000  0.0000000000  3.2367010000
H  -4.3804090000  0.0000000000  3.2671180000