6
charge=-1, multiplicity=1, basis=def2-QZVPPD, AUX_BASIS_CORR=rimp2-def2-QZVPPD, SCF_ALGORITHM=GDM, xc_grid=000099000590, mem_total=3750, num_basis=291, num_pairs=39038, num_threads=1
H  0.6826012182  -2.2581821064  0.0000000000
O  -0.2566896104  -2.0663457042  0.0000000000
H  -0.2507128945  -1.0620697131  0.0000000000
C  -0.0021957531  0.7880600385  0.0000000000
C  0.2107839429  2.0138256505  0.0000000000
H  0.3856500969  3.0688268346  0.0000000000