3
charge=0, multiplicity=1, basis=def2-QZVPPD, AUX_BASIS_CORR=rimp2-def2-QZVPPD, SCF_ALGORITHM=GDM, xc_grid=000099000590, mem_total=3750, num_basis=159, num_pairs=13029, num_threads=1
H  1.5103980000  -0.0181560000  0.0000000000
N  2.3728510000  -0.5276070000  0.0000000000
C  3.3901500000  -1.1281390000  0.0000000000