4
charge=0, multiplicity=1, basis=def2-QZVPPD, AUX_BASIS_CORR=rimp2-def2-QZVPPD, SCF_ALGORITHM=GDM, xc_grid=000099000590, mem_total=3750, num_basis=162, num_pairs=13492, num_threads=1
N  0.1862497304  2.2164655918  0.0779595112
H  -0.6474283516  2.4902526342  -0.4322027365
H  0.9867284068  2.5759231504  -0.4322052716
H  0.1622461828  2.6743872713  0.9835840964