3
charge=0, multiplicity=1, basis=def2-QZVPPD, AUX_BASIS_CORR=rimp2-def2-QZVPPD, SCF_ALGORITHM=GDM, xc_grid=000099000590, mem_total=3750, num_basis=145, num_pairs=10840, num_threads=1
S  0.0802990000  1.3332400000  0.0259220000
H  -0.6293810000  2.4611030000  0.0075090000
H  -1.0151740000  0.5780390000  -0.0415820000