7
charge=0, multiplicity=2, basis=def2-QZVPPD, AUX_BASIS_CORR=rimp2-def2-QZVPPD, SCF_ALGORITHM=GDM, xc_grid=000099000590, mem_total=3750, num_basis=294, num_pairs=41066, num_threads=1
H  0.0000000000  0.0000000000  0.0000000000
O  0.0000000000  0.0000000000  0.9590817153
H  0.9312263096  0.0000000000  1.1973357780
C  3.1399041852  0.0000000000  1.9321407090
H  2.6957021254  0.0000000000  2.9137598435
H  3.4187972280  -0.9326901414  1.4709054655
H  3.4187972280  0.9326901414  1.4709054655