4
charge=0, multiplicity=1, basis=def2-QZVPPD, AUX_BASIS_CORR=rimp2-def2-QZVPPD, SCF_ALGORITHM=GDM, xc_grid=000099000590, mem_total=3750, num_basis=261, num_pairs=34291, num_threads=1
N  -1.6356730000  0.7607590000  0.0000000000
F  -1.6685190000  -0.0922730000  1.0630190000
F  -1.6685190000  -0.0922730000  -1.0630190000
F  -0.3091800000  1.1636600000  0.0000000000