3
charge=0, multiplicity=1, basis=def2-QZVPPD, AUX_BASIS_CORR=rimp2-def2-QZVPPD, SCF_ALGORITHM=GDM, xc_grid=000099000590, mem_total=3750, num_basis=230, num_pairs=26416, num_threads=1
Se  0.3146135113  -0.2319984103  0.0083811395
F  0.2908498011  0.2212170880  -1.6894779245
F  0.4047007192  -1.9505773254  -0.4271688145