10
charge=1, multiplicity=2, basis=def2-QZVPPD, AUX_BASIS_CORR=rimp2-def2-QZVPPD, SCF_ALGORITHM=GDM, xc_grid=000099000590, mem_total=3750, num_basis=420, num_pairs=87022, num_threads=1
N  0.0000000000  0.0000000000  0.4436560000
H  0.0000000000  0.0000000000  1.4628500000
C  0.0000000000  1.2748370000  -0.2071360000
H  0.9478750000  1.7856620000  0.0185960000
H  -0.1174440000  1.1594940000  -1.2794230000
H  -0.7925330000  1.8992690000  0.2194190000
C  0.0000000000  -1.2748370000  -0.2071360000
H  0.1174440000  -1.1594940000  -1.2794230000
H  0.7925330000  -1.8992690000  0.2194190000
H  -0.9478750000  -1.7856620000  0.0185960000