11
charge=0, multiplicity=1, basis=def2-QZVPPD, AUX_BASIS_CORR=rimp2-def2-QZVPPD, SCF_ALGORITHM=GDM, xc_grid=000099000590, mem_total=3750, num_basis=549, num_pairs=139656, num_threads=1
C  1.0003470000  0.1447830000  -0.0129720000
O  1.1431090000  1.3112220000  -0.1291490000
C  -0.2414500000  -0.6444180000  0.2892990000
H  -0.0580410000  -1.1403250000  1.2492400000
C  -1.4797880000  0.1952040000  0.3416850000
H  -0.3241540000  -1.4447090000  -0.4478100000
C  -2.5869900000  -0.0821560000  -0.3300660000
H  -2.6566890000  -0.9435590000  -0.9832160000
H  -3.4647900000  0.5436990000  -0.2516310000
H  -1.4339450000  1.0708810000  0.9778500000
F  2.0711150000  -0.6951390000  -0.1376570000