12
charge=0, multiplicity=1, basis=def2-QZVPPD, AUX_BASIS_CORR=rimp2-def2-QZVPPD, SCF_ALGORITHM=GDM, xc_grid=000099000590, mem_total=7500, num_basis=642, num_pairs=192978, num_threads=2
C  11.8572680000  2.5906680000  3.1650340000
C  12.1427260000  0.1530910000  3.2459850000
C  13.5504720000  0.3535820000  3.3933640000
C  14.0266840000  1.6060340000  3.4156950000
H  14.9589390000  1.8118460000  3.4876760000
H  13.5212400000  3.4702300000  3.2668730000
H  10.5304440000  1.1720070000  3.0360340000
H  14.0970990000  -0.3985070000  3.4456480000
N  13.2177870000  2.6917800000  3.3037570000
N  11.3912940000  1.2955200000  3.1491330000
O  11.1160650000  3.5490660000  3.0682450000
O  11.5744630000  -0.9536950000  3.1979350000