3
charge=0, multiplicity=1, basis=def2-QZVPPD, AUX_BASIS_CORR=rimp2-def2-QZVPPD, SCF_ALGORITHM=GDM, xc_grid=000099000590, mem_total=3750, num_basis=132, num_pairs=9017, num_threads=1
H  0.0086390000  -2.3870110000  0.7500000000
O  -0.2654370000  -3.3125810000  0.7500000000
H  0.5597590000  -3.8054750000  0.7500000000