4
charge=0, multiplicity=1, basis=def2-QZVPPD, AUX_BASIS_CORR=rimp2-def2-QZVPPD, SCF_ALGORITHM=GDM, xc_grid=000099000590, mem_total=3750, num_basis=274, num_pairs=37274, num_threads=1
S  0.8295868027  0.6122960055  0.0000000000
C  0.1435795209  -0.8275345060  0.0000000000
F  -0.2741774879  -1.5301050960  1.0653565240
F  -0.2741774879  -1.5301050960  -1.0653565240