6
charge=0, multiplicity=1, basis=def2-QZVPPD, AUX_BASIS_CORR=rimp2-def2-QZVPPD, SCF_ALGORITHM=GDM, xc_grid=000099000590, mem_total=3750, num_basis=261, num_pairs=34660, num_threads=1
C  -0.0464230233  0.6630696287  0.0000000000
O  -0.0464230233  -0.7550617950  0.0000000000
H  -1.0869564498  0.9759403628  0.0000000000
H  0.8605903144  -1.0570420621  0.0000000000
H  0.4381449719  1.0715944354  0.8895415996
H  0.4381449719  1.0715944354  -0.8895415996