7
charge=0, multiplicity=1, basis=def2-QZVPPD, AUX_BASIS_CORR=rimp2-def2-QZVPPD, SCF_ALGORITHM=GDM, xc_grid=000099000590, mem_total=3750, num_basis=455, num_pairs=98213, num_threads=1
C  1.2587300000  0.0039160000  -0.0190180000
N  0.1372370000  0.8371470000  -0.2839650000
H  0.1627880000  1.6368850000  0.3396960000
F  2.3597770000  0.7616810000  -0.1677960000
F  1.3089520000  -0.5210720000  1.2272190000
F  1.3105010000  -1.0153440000  -0.8771900000
Br  -1.5282540000  -0.0156510000  0.0034870000