4
charge=0, multiplicity=1, basis=def2-QZVPPD, AUX_BASIS_CORR=rimp2-def2-QZVPPD, SCF_ALGORITHM=GDM, xc_grid=000099000590, mem_total=3750, num_basis=261, num_pairs=34291, num_threads=1
N  -1.2407040000  -0.4044790000  0.0000000000
F  -2.0264390000  -0.0810140000  -1.0619670000
F  -2.0264390000  -0.0810140000  1.0619670000
F  -0.3201800000  0.6380480000  0.0000000000