3
charge=0, multiplicity=1, basis=def2-QZVPPD, AUX_BASIS_CORR=rimp2-def2-QZVPPD, SCF_ALGORITHM=GDM, xc_grid=000099000590, mem_total=3750, num_basis=145, num_pairs=10840, num_threads=1
S  0.0410760000  -2.1350960000  0.0000000000
H  -1.2721360000  -2.3605000000  0.0000000000
H  -0.1300320000  -0.8106460000  0.0000000000