3
charge=0, multiplicity=1, basis=def2-QZVPPD, AUX_BASIS_CORR=rimp2-def2-QZVPPD, SCF_ALGORITHM=GDM, xc_grid=000099000590, mem_total=3750, num_basis=145, num_pairs=10840, num_threads=1
S  -0.0609640000  2.0660200000  0.0000000000
H  0.8596730000  2.1370070000  -0.9612100000
H  0.8596730000  2.1370070000  0.9612100000