6
charge=0, multiplicity=1, basis=def2-QZVPPD, AUX_BASIS_CORR=rimp2-def2-QZVPPD, SCF_ALGORITHM=GDM, xc_grid=000099000590, mem_total=3750, num_basis=258, num_pairs=33789, num_threads=1
C  0.0000000000  0.0000000000  -0.1919950000
C  0.0000000000  0.0000000000  1.1418030000
H  0.9230180000  0.0000000000  -0.7552020000
H  0.9187670000  0.0000000000  1.7106050000
H  -0.9187670000  0.0000000000  1.7106050000
H  -0.9230180000  0.0000000000  -0.7552020000