5
charge=0, multiplicity=1, basis=def2-QZVPPD, AUX_BASIS_CORR=rimp2-def2-QZVPPD, SCF_ALGORITHM=GDM, xc_grid=000099000590, mem_total=3750, num_basis=323, num_pairs=44425, num_threads=1
F  0.0000000000  0.0000000000  2.2752740000
Br  0.0000000000  0.0000000000  0.4909090000
N  0.0000000000  0.0000000000  -2.0370130000
C  0.0000000000  0.0000000000  -3.1903380000
H  0.0000000000  0.0000000000  -4.2581640000