6
charge=0, multiplicity=2, basis=def2-QZVPPD, AUX_BASIS_CORR=rimp2-def2-QZVPPD, SCF_ALGORITHM=GDM, xc_grid=000099000590, mem_total=3750, num_basis=357, num_pairs=63411, num_threads=1
C  0.0100450000  0.0426400000  0.0000000000
N  1.1364190000  0.9065540000  0.0000000000
H  1.9619410000  0.2983840000  0.0000000000
F  -1.1286620000  0.7360000000  0.0000000000
F  0.0100450000  -0.7513390000  1.0931460000
F  0.0100450000  -0.7513390000  -1.0931460000