3
charge=0, multiplicity=1, basis=def2-QZVPPD, AUX_BASIS_CORR=rimp2-def2-QZVPPD, SCF_ALGORITHM=GDM, xc_grid=000099000590, mem_total=3750, num_basis=132, num_pairs=9017, num_threads=1
O  -0.0148150000  2.2222190000  0.0000000000
H  0.2124040000  2.7681990000  -0.7555250000
H  0.2124040000  2.7681990000  0.7555250000