6
charge=0, multiplicity=1, basis=def2-QZVPPD, AUX_BASIS_CORR=rimp2-def2-QZVPPD, SCF_ALGORITHM=GDM, xc_grid=000099000590, mem_total=3750, num_basis=277, num_pairs=35224, num_threads=1
S  0.0598880000  -1.3630070000  0.0000000000
H  -1.2672960000  -1.4780230000  0.0000000000
H  0.0028210000  -0.0277720000  0.0000000000
O  -0.0148150000  2.2222190000  0.0000000000
H  0.2124040000  2.7681990000  -0.7555250000
H  0.2124040000  2.7681990000  0.7555250000