7
charge=0, multiplicity=1, basis=def2-QZVPPD, AUX_BASIS_CORR=rimp2-def2-QZVPPD, SCF_ALGORITHM=GDM, xc_grid=000099000590, mem_total=3750, num_basis=420, num_pairs=71589, num_threads=1
N  0.2452560000  1.7660020000  0.0000000000
F  -0.5823620000  1.5415980000  -1.0641720000
F  -0.5823620000  1.5415980000  1.0641720000
F  0.3392160000  3.1418390000  0.0000000000
H  0.2596350000  -3.8696330000  0.0000000000
C  0.2134420000  -1.6881840000  0.0000000000
N  0.2385740000  -2.8690160000  0.0000000000