4
charge=0, multiplicity=1, basis=def2-QZVPPD, AUX_BASIS_CORR=rimp2-def2-QZVPPD, SCF_ALGORITHM=GDM, xc_grid=000099000590, mem_total=3750, num_basis=224, num_pairs=23804, num_threads=1
H  -1.8403440218  -1.2440846663  0.0000000000
Cl  -1.8922485263  0.0330176553  0.0000000000
H  0.6613200077  0.1987382718  0.0000000000
Cl  1.9257685519  -0.0032981268  0.0000000000