4
charge=0, multiplicity=2, basis=def2-QZVPPD, AUX_BASIS_CORR=rimp2-def2-QZVPPD, SCF_ALGORITHM=GDM, xc_grid=000099000590, mem_total=3750, num_basis=198, num_pairs=19974, num_threads=1
F  0.0000000000  0.0000000000  0.0000000000
O  0.0000000000  0.0000000000  2.1182985275
H  0.9625574465  0.0000000000  2.0519857278
H  -0.2464919733  0.9304614688  2.0519857278