17
charge=0, multiplicity=1, basis=def2-QZVPPD, AUX_BASIS_CORR=rimp2-def2-QZVPPD, SCF_ALGORITHM=GDM, xc_grid=000099000590, mem_total=7500, num_basis=711, num_pairs=242356, num_threads=2
C  0.0000000000  0.0000000000  0.0000000000
C  0.8868240000  0.8868240000  0.8868240000
C  -0.8868240000  -0.8868240000  0.8868240000
C  -0.8868240000  0.8868240000  -0.8868240000
C  0.8868240000  -0.8868240000  -0.8868240000
H  1.5295950000  1.5295950000  0.2819530000
H  0.2819530000  1.5295950000  1.5295950000
H  1.5295950000  0.2819530000  1.5295950000
H  -1.5295950000  -1.5295950000  0.2819530000
H  -0.2819530000  -1.5295950000  1.5295950000
H  -1.5295950000  -0.2819530000  1.5295950000
H  -1.5295950000  0.2819530000  -1.5295950000
H  -1.5295950000  1.5295950000  -0.2819530000
H  -0.2819530000  1.5295950000  -1.5295950000
H  0.2819530000  -1.5295950000  -1.5295950000
H  1.5295950000  -0.2819530000  -1.5295950000
H  1.5295950000  -1.5295950000  -0.2819530000