17
charge=0, multiplicity=1, basis=def2-QZVPPD, AUX_BASIS_CORR=rimp2-def2-QZVPPD, SCF_ALGORITHM=GDM, xc_grid=000099000590, mem_total=7500, num_basis=711, num_pairs=225039, num_threads=2
C  0.0000000000  2.5434370000  0.3276220000
C  0.0000000000  1.2762910000  -0.5275290000
C  0.0000000000  0.0000000000  0.3135180000
C  0.0000000000  -1.2762910000  -0.5275290000
C  0.0000000000  -2.5434370000  0.3276220000
H  0.8824540000  2.5767940000  0.9722370000
H  -0.8824540000  2.5767940000  0.9722370000
H  0.0000000000  3.4448980000  -0.2888350000
H  -0.8767580000  1.2736000000  -1.1844250000
H  0.8767580000  1.2736000000  -1.1844250000
H  -0.8771930000  0.0000000000  0.9720990000
H  0.8771930000  0.0000000000  0.9720990000
H  0.8767580000  -1.2736000000  -1.1844250000
H  -0.8767580000  -1.2736000000  -1.1844250000
H  -0.8824540000  -2.5767940000  0.9722370000
H  0.0000000000  -3.4448980000  -0.2888350000
H  0.8824540000  -2.5767940000  0.9722370000