4
charge=0, multiplicity=1, basis=def2-QZVPPD, AUX_BASIS_CORR=rimp2-def2-QZVPPD, SCF_ALGORITHM=GDM, xc_grid=000099000590, mem_total=3750, num_basis=293, num_pairs=41463, num_threads=1
Se  0.7378260661  0.7440363681  0.0000000000
C  0.1383790526  -0.9141601303  0.0000000000
F  -0.2583681353  -1.6287562029  1.0672960532
F  -0.2583681353  -1.6287562029  -1.0672960532