9
charge=0, multiplicity=1, basis=def2-QZVPPD, AUX_BASIS_CORR=rimp2-def2-QZVPPD, SCF_ALGORITHM=GDM, xc_grid=000099000590, mem_total=3750, num_basis=390, num_pairs=69028, num_threads=1
O  0.0000000000  0.0000000000  0.0102240000
C  0.6669130000  0.0000000000  3.3876540000
C  -0.6669130000  0.0000000000  3.3876540000
H  1.2302160000  0.0000000000  4.3109280000
H  1.2165970000  0.0000000000  2.4571560000
H  -1.2302160000  0.0000000000  4.3109280000
H  -1.2165970000  0.0000000000  2.4571560000
H  0.0000000000  -0.7588880000  -0.5806820000
H  0.0000000000  0.7588880000  -0.5806820000