6
charge=0, multiplicity=1, basis=def2-QZVPPD, AUX_BASIS_CORR=rimp2-def2-QZVPPD, SCF_ALGORITHM=GDM, xc_grid=000099000590, mem_total=3750, num_basis=359, num_pairs=56403, num_threads=1
F  -0.7461770000  2.1174380000  0.0000000000
Br  0.0000000000  0.4936910000  0.0000000000
O  0.8957780000  -1.7889890000  0.0000000000
C  0.0423680000  -2.6521950000  0.0000000000
H  0.3217270000  -3.7134870000  0.0000000000
H  -1.0265680000  -2.3975590000  0.0000000000