4
charge=0, multiplicity=1, basis=def2-QZVPPD, AUX_BASIS_CORR=rimp2-def2-QZVPPD, SCF_ALGORITHM=GDM, xc_grid=000099000590, mem_total=3750, num_basis=261, num_pairs=34291, num_threads=1
N  0.0000000000  0.0000000000  -0.0055140000
F  1.2311580000  0.0000000000  0.5914810000
F  -0.6155790000  -1.0662140000  0.5914810000
F  -0.6155790000  1.0662140000  0.5914810000