3
charge=0, multiplicity=1, basis=def2-QZVPPD, AUX_BASIS_CORR=rimp2-def2-QZVPPD, SCF_ALGORITHM=GDM, xc_grid=000099000590, mem_total=3750, num_basis=159, num_pairs=13029, num_threads=1
C  0.0000000000  0.0000000000  4.0784200000
N  0.0000000000  0.0000000000  5.2599100000
H  0.0000000000  0.0000000000  6.2606620000