4
charge=0, multiplicity=2, basis=def2-QZVPPD, AUX_BASIS_CORR=rimp2-def2-QZVPPD, SCF_ALGORITHM=GDM, xc_grid=000099000590, mem_total=3750, num_basis=167, num_pairs=14314, num_threads=1
Li  0.0000000000  0.0000000000  0.0000000000
O  0.0000000000  0.0000000000  1.8877828429
H  0.8412755256  0.0000000000  2.3634868606
H  -0.5741328640  0.6149113469  2.3634868606