12
charge=0, multiplicity=1, basis=def2-QZVPPD, AUX_BASIS_CORR=rimp2-def2-QZVPPD, SCF_ALGORITHM=GDM, xc_grid=000099000590, mem_total=3750, num_basis=519, num_pairs=131119, num_threads=1
C  0.4005360000  0.9817370000  0.0000000000
H  1.4395620000  1.3056720000  0.0000000000
C  -0.1409180000  0.6105120000  1.2363300000
H  -1.2227680000  0.5681930000  1.3379340000
H  -0.0243290000  -0.7740160000  0.8083030000
H  0.3904210000  0.8804810000  2.1392920000
H  -0.0243290000  -0.7740160000  -0.8083030000
O  -0.1409180000  -1.7092050000  0.0000000000
H  0.6889360000  -2.1979160000  0.0000000000
C  -0.1409180000  0.6105120000  -1.2363300000
H  0.3904210000  0.8804810000  -2.1392920000
H  -1.2227680000  0.5681930000  -1.3379340000