22
charge=0, multiplicity=1, basis=def2-QZVPPD, AUX_BASIS_CORR=rimp2-def2-QZVPPD, SCF_ALGORITHM=GDM, xc_grid=000099000590, mem_total=15000, num_basis=1086, num_pairs=392511, num_threads=4
N  1.3980380000  0.0000000000  0.0000000000
C  0.6985370000  1.1401300000  0.0000000000
C  -0.6941820000  1.1953400000  0.0000000000
C  -1.4067470000  0.0000000000  0.0000000000
C  -0.6941820000  -1.1953400000  0.0000000000
C  0.6985370000  -1.1401300000  0.0000000000
H  1.2816690000  2.0568850000  0.0000000000
H  -1.1999250000  2.1525480000  0.0000000000
H  -2.4885470000  0.0000000000  0.0000000000
H  -1.1999250000  -2.1525480000  0.0000000000
H  1.2816690000  -2.0568850000  0.0000000000
N  -1.3980380000  0.0000000000  6.5000000000
C  -0.6985370000  1.1401300000  6.5000000000
C  0.6941820000  1.1953400000  6.5000000000
C  1.4067470000  0.0000000000  6.5000000000
C  0.6941820000  -1.1953400000  6.5000000000
C  -0.6985370000  -1.1401300000  6.5000000000
H  -1.2816690000  2.0568850000  6.5000000000
H  1.1999250000  2.1525480000  6.5000000000
H  2.4885470000  0.0000000000  6.5000000000
H  1.1999250000  -2.1525480000  6.5000000000
H  -1.2816690000  -2.0568850000  6.5000000000