11
charge=0, multiplicity=1, basis=def2-QZVPPD, AUX_BASIS_CORR=rimp2-def2-QZVPPD, SCF_ALGORITHM=GDM, xc_grid=000099000590, mem_total=3750, num_basis=543, num_pairs=142245, num_threads=1
N  -1.3980380000  0.0000000000  4.1000000000
C  -0.6985370000  0.0000000000  5.2401300000
C  0.6941820000  0.0000000000  5.2953400000
C  1.4067470000  0.0000000000  4.1000000000
C  0.6941820000  0.0000000000  2.9046600000
C  -0.6985370000  0.0000000000  2.9598700000
H  -1.2816690000  0.0000000000  6.1568850000
H  1.1999250000  0.0000000000  6.2525480000
H  2.4885470000  0.0000000000  4.1000000000
H  1.1999250000  0.0000000000  1.9474520000
H  -1.2816690000  0.0000000000  2.0431150000