7
charge=1, multiplicity=2, basis=def2-QZVPPD, AUX_BASIS_CORR=rimp2-def2-QZVPPD, SCF_ALGORITHM=GDM, xc_grid=000099000590, mem_total=3750, num_basis=294, num_pairs=41606, num_threads=1
O  0.0000000000  0.0000000000  0.0000000000
H  0.0000000000  0.0000000000  0.9614160907
H  0.9208997990  0.0000000000  -0.2761602065
H  -1.2382619228  0.0000000000  -0.9214101701
N  -2.0954434521  0.0000000000  -1.5592524263
H  -2.5217176970  -0.8682805936  -1.8764497957
H  -2.5217176970  0.8682805936  -1.8764497957