9
charge=0, multiplicity=1, basis=def2-QZVPPD, AUX_BASIS_CORR=rimp2-def2-QZVPPD, SCF_ALGORITHM=GDM, xc_grid=000099000590, mem_total=3750, num_basis=393, num_pairs=72294, num_threads=1
O  -0.5253297940  -0.0509710840  -0.3145168610
H  -0.9420066330  0.7479016310  0.0112528160
H  0.4036965250  0.0597859810  -0.0735683680
O  2.3603428940  0.0451744410  0.0751813140
H  2.7283257180  -0.5269029620  0.7527096410
C  2.8253479650  -0.4264554750  -1.1869777960
H  2.3945308700  0.2246382160  -1.9400918280
H  3.9113116520  -0.3756626140  -1.2612897240
H  2.4970053470  -1.4463249720  -1.3860584300