12
charge=0, multiplicity=1, basis=def2-QZVPPD, AUX_BASIS_CORR=rimp2-def2-QZVPPD, SCF_ALGORITHM=GDM, xc_grid=000099000590, mem_total=3750, num_basis=522, num_pairs=99707, num_threads=1
O  -0.6361349280  -0.0232824110  0.2805993210
H  0.3080973720  -0.0470787480  0.0764636910
C  -1.1520654070  -1.3112877830  0.0152595490
H  -2.2099450230  -1.2962653920  0.2639558630
H  -1.0566102400  -1.5926708590  -1.0361906060
H  -0.6748357460  -2.0862727650  0.6205114490
O  4.1744904600  -0.1996006870  -0.1035439540
H  4.6432797700  0.4147838370  -0.6732099080
C  4.6833243860  -0.0425817490  1.2181733700
H  4.1297553060  -0.7307781760  1.8483042500
H  5.7423204880  -0.2930206480  1.2748965110
H  4.5308847480  0.9681123040  1.5960659160