22
charge=0, multiplicity=1, basis=def2-QZVPPD, AUX_BASIS_CORR=rimp2-def2-QZVPPD, SCF_ALGORITHM=GDM, xc_grid=000099000590, mem_total=30000, num_basis=1086, num_pairs=440843, num_threads=8
N  1.3980380000  0.0000000000  0.0000000000
C  0.6985370000  1.1401300000  0.0000000000
C  -0.6941820000  1.1953400000  0.0000000000
C  -1.4067470000  0.0000000000  0.0000000000
C  -0.6941820000  -1.1953400000  0.0000000000
C  0.6985370000  -1.1401300000  0.0000000000
H  1.2816690000  2.0568850000  0.0000000000
H  -1.1999250000  2.1525480000  0.0000000000
H  -2.4885470000  0.0000000000  0.0000000000
H  -1.1999250000  -2.1525480000  0.0000000000
H  1.2816690000  -2.0568850000  0.0000000000
N  -1.3980380000  0.0000000000  5.3000000000
C  -0.6985370000  0.0000000000  6.4401300000
C  0.6941820000  0.0000000000  6.4953400000
C  1.4067470000  0.0000000000  5.3000000000
C  0.6941820000  0.0000000000  4.1046600000
C  -0.6985370000  0.0000000000  4.1598700000
H  -1.2816690000  0.0000000000  7.3568850000
H  1.1999250000  0.0000000000  7.4525480000
H  2.4885470000  0.0000000000  5.3000000000
H  1.1999250000  0.0000000000  3.1474520000
H  -1.2816690000  0.0000000000  3.2431150000