6
charge=-1, multiplicity=1, basis=def2-QZVPPD, AUX_BASIS_CORR=rimp2-def2-QZVPPD, SCF_ALGORITHM=GDM, xc_grid=000099000590, mem_total=3750, num_basis=320, num_pairs=48362, num_threads=1
Cl  0.0000000000  0.0000000000  -2.2180722969
C  0.0000000000  0.0000000000  -0.3996659392
H  -0.5125319416  0.8877313634  -0.0577142715
H  -0.5125319416  -0.8877313634  -0.0577142715
H  1.0250638833  0.0000000000  -0.0577142715
Cl  0.0000000000  0.0000000000  2.7908810507