4
charge=0, multiplicity=1, basis=def2-QZVPPD, AUX_BASIS_CORR=rimp2-def2-QZVPPD, SCF_ALGORITHM=GDM, xc_grid=000099000590, mem_total=3750, num_basis=162, num_pairs=13492, num_threads=1
N  0.0006198381  3.5325954775  0.0000000000
H  0.4764058108  3.9113937136  0.8128553497
H  -0.9303412654  3.9375965570  0.0000000000
H  0.4764058108  3.9113937136  -0.8128553497