4
charge=0, multiplicity=1, basis=def2-QZVPPD, AUX_BASIS_CORR=rimp2-def2-QZVPPD, SCF_ALGORITHM=GDM, xc_grid=000099000590, mem_total=3750, num_basis=198, num_pairs=19055, num_threads=1
F  -1.3362406215  0.0460757904  0.0000000000
F  1.4000426076  -0.0096788713  0.0000000000
H  0.4856119019  0.1185642639  0.0000000000
H  -1.6881992034  -0.8046004737  0.0000000000