7
charge=1, multiplicity=2, basis=def2-QZVPPD, AUX_BASIS_CORR=rimp2-def2-QZVPPD, SCF_ALGORITHM=GDM, xc_grid=000099000590, mem_total=3750, num_basis=294, num_pairs=43167, num_threads=1
H  0.0000000000  0.0000000000  0.0000000000
N  0.0000000000  0.0000000000  1.0142486611
O  2.2857616729  0.0000000000  0.5979441680
H  2.8552597140  0.7647266240  0.7342507617
H  2.8552597140  -0.7647266240  0.7342507617
H  0.0073163526  0.8773573399  1.5231676570
H  0.0073163526  -0.8773573399  1.5231676570