10
charge=0, multiplicity=1, basis=def2-QZVPPD, AUX_BASIS_CORR=rimp2-def2-QZVPPD, SCF_ALGORITHM=GDM, xc_grid=000099000590, mem_total=3750, num_basis=545, num_pairs=140209, num_threads=1
C  0.0000000000  1.1303020000  -1.1192310000
C  0.0000000000  0.7100630000  -2.4265590000
C  0.0000000000  -0.7100630000  -2.4265590000
C  0.0000000000  -1.1303020000  -1.1192310000
N  0.0000000000  0.0000000000  -0.3385020000
H  0.0000000000  2.1103740000  -0.6791580000
H  0.0000000000  1.3568330000  -3.2873100000
H  0.0000000000  -1.3568330000  -3.2873100000
H  0.0000000000  -2.1103740000  -0.6791580000
Br  0.0000000000  0.0000000000  1.5100550000