5
charge=0, multiplicity=1, basis=def2-QZVPPD, AUX_BASIS_CORR=rimp2-def2-QZVPPD, SCF_ALGORITHM=GDM, xc_grid=000099000590, mem_total=3750, num_basis=317, num_pairs=41690, num_threads=1
P  0.0000000000  0.0000000000  -1.7744620000
C  0.0000000000  0.0000000000  -3.2980170000
H  0.0000000000  0.0000000000  -4.3695590000
Cl  0.0000000000  0.0000000000  1.3885410000
F  0.0000000000  0.0000000000  3.0188210000