3
charge=0, multiplicity=1, basis=def2-QZVPPD, AUX_BASIS_CORR=rimp2-def2-QZVPPD, SCF_ALGORITHM=GDM, xc_grid=000099000590, mem_total=3750, num_basis=132, num_pairs=9017, num_threads=1
O  -2.1756790000  -1.2211610000  -0.0316970000
H  -1.7796390000  -0.3473030000  -0.1315090000
H  -1.4095910000  -1.8004460000  0.0270020000