20
charge=0, multiplicity=1, basis=def2-QZVPPD, AUX_BASIS_CORR=rimp2-def2-QZVPPD, SCF_ALGORITHM=GDM, xc_grid=000099000590, mem_total=15000, num_basis=840, num_pairs=322971, num_threads=4
C  0.3417020000  -0.6951330000  0.0000000000
H  1.4249350000  -0.5202950000  0.0000000000
C  -0.3417020000  0.6951330000  0.0000000000
H  -1.4249350000  0.5202950000  0.0000000000
C  0.0000000000  1.5139240000  1.2508110000
H  -0.3423720000  1.0370170000  2.1676090000
H  1.0797580000  1.6636180000  1.3337150000
H  -0.4647980000  2.4997920000  1.2023450000
C  0.0000000000  1.5139240000  -1.2508110000
H  -0.3423720000  1.0370170000  -2.1676090000
H  -0.4647980000  2.4997920000  -1.2023450000
H  1.0797580000  1.6636180000  -1.3337150000
C  0.0000000000  -1.5139240000  -1.2508110000
H  -1.0797580000  -1.6636180000  -1.3337150000
H  0.3423720000  -1.0370170000  -2.1676090000
H  0.4647980000  -2.4997920000  -1.2023450000
C  0.0000000000  -1.5139240000  1.2508110000
H  0.3423720000  -1.0370170000  2.1676090000
H  -1.0797580000  -1.6636180000  1.3337150000
H  0.4647980000  -2.4997920000  1.2023450000