5
charge=0, multiplicity=2, basis=def2-QZVPPD, AUX_BASIS_CORR=rimp2-def2-QZVPPD, SCF_ALGORITHM=GDM, xc_grid=000099000590, mem_total=3750, num_basis=228, num_pairs=25050, num_threads=1
B  0.0000000000  0.0000000000  0.0000000000
F  0.0000000000  0.0000000000  3.1510313916
H  1.0753530252  0.0000000000  -0.4817873066
H  0.0000000000  0.0000000000  2.2206276709
H  -1.0753530252  0.0000000000  -0.4817873066