5
charge=0, multiplicity=1, basis=def2-QZVPPD, AUX_BASIS_CORR=rimp2-def2-QZVPPD, SCF_ALGORITHM=GDM, xc_grid=000099000590, mem_total=3750, num_basis=231, num_pairs=26164, num_threads=1
F  0.0436775100  1.4101577111  0.0000000000
H  0.0691042097  0.4766170514  0.0000000000
O  0.0416798165  -1.2370955847  0.0000000000
H  -0.3915952681  -1.6256385889  0.7632048070
H  -0.3915952681  -1.6256385889  -0.7632048070