4
charge=0, multiplicity=1, basis=def2-QZVPPD, AUX_BASIS_CORR=rimp2-def2-QZVPPD, SCF_ALGORITHM=GDM, xc_grid=000099000590, mem_total=3750, num_basis=293, num_pairs=41465, num_threads=1
Se  -0.0019766792  0.3256098524  0.0000000000
C  0.0004322207  -1.4362373784  0.0000000000
F  0.0014987960  -2.2174749607  1.0605577528
F  0.0014987960  -2.2174749607  -1.0605577528