3
charge=0, multiplicity=1, basis=def2-QZVPPD, AUX_BASIS_CORR=rimp2-def2-QZVPPD, SCF_ALGORITHM=GDM, xc_grid=000099000590, mem_total=3750, num_basis=159, num_pairs=13024, num_threads=1
H  0.2559650000  1.8548260000  0.0000000000
C  0.0497580000  2.9030580000  0.0000000000
N  -0.1769790000  4.0523340000  0.0000000000