4
charge=0, multiplicity=1, basis=def2-QZVPPD, AUX_BASIS_CORR=rimp2-def2-QZVPPD, SCF_ALGORITHM=GDM, xc_grid=000099000590, mem_total=3750, num_basis=261, num_pairs=34291, num_threads=1
N  -0.4131970000  -1.3993750000  0.0000000000
F  -0.0816550000  -2.1853040000  1.0632570000
F  -0.0816550000  -2.1853040000  -1.0632570000
F  0.6120500000  -0.4711740000  0.0000000000