9
charge=0, multiplicity=2, basis=def2-QZVPPD, AUX_BASIS_CORR=rimp2-def2-QZVPPD, SCF_ALGORITHM=GDM, xc_grid=000099000590, mem_total=3750, num_basis=447, num_pairs=98671, num_threads=1
C  0.0000000000  1.0626180000  0.4237320000
C  0.0000000000  0.6786780000  -0.9805790000
C  0.0000000000  -0.6786780000  -0.9805790000
C  0.0000000000  -1.0626180000  0.4237320000
N  0.0000000000  0.0000000000  1.2424870000
H  0.0000000000  2.0696330000  0.8168050000
H  0.0000000000  1.3486460000  -1.8244280000
H  0.0000000000  -1.3486460000  -1.8244280000
H  0.0000000000  -2.0696330000  0.8168050000