4
charge=1, multiplicity=2, basis=def2-QZVPPD, AUX_BASIS_CORR=rimp2-def2-QZVPPD, SCF_ALGORITHM=GDM, xc_grid=000099000590, mem_total=3750, num_basis=228, num_pairs=25810, num_threads=1
C  0.0000000000  0.0000000000  0.0000000000
O  0.0000000000  0.0000000000  1.1205777135
F  1.4245048849  0.0000000000  -1.1061739594
H  1.2005345680  0.0000000000  -2.0273292768