4
charge=0, multiplicity=1, basis=def2-QZVPPD, AUX_BASIS_CORR=rimp2-def2-QZVPPD, SCF_ALGORITHM=GDM, xc_grid=000099000590, mem_total=3750, num_basis=261, num_pairs=34291, num_threads=1
N  0.2913310000  1.6671630000  0.0000000000
F  -0.5005100000  1.3362790000  -1.0641870000
F  -0.5005100000  1.3362790000  1.0641870000
F  0.2049900000  3.0427790000  0.0000000000