6
charge=-1, multiplicity=1, basis=def2-QZVPPD, AUX_BASIS_CORR=rimp2-def2-QZVPPD, SCF_ALGORITHM=GDM, xc_grid=000099000590, mem_total=3750, num_basis=451, num_pairs=84580, num_threads=1
S  0.0000000000  -0.0000013026  -0.6140869206
Br  0.0000000000  -0.0000051669  -3.8875431486
P  0.0000000000  -0.0000064535  1.2712716672
F  0.0000000000  1.3576985932  2.0594886851
F  -1.1757900496  -0.6788428351  2.0594598584
F  1.1757900496  -0.6788428351  2.0594598584