8
charge=0, multiplicity=1, basis=def2-QZVPPD, AUX_BASIS_CORR=rimp2-def2-QZVPPD, SCF_ALGORITHM=GDM, xc_grid=000099000590, mem_total=3750, num_basis=384, num_pairs=73533, num_threads=1
C  -0.2802010000  1.5308510000  0.0000000000
C  1.2512660000  1.8648270000  0.0000000000
C  1.5339600000  0.5514080000  0.0000000000
C  0.0009410000  0.2163970000  0.0000000000
H  -1.1886010000  2.1140450000  0.0000000000
H  -0.5796660000  -0.6943140000  0.0000000000
H  2.4434840000  -0.0300270000  0.0000000000
H  1.8384640000  2.7706430000  0.0000000000