16
charge=0, multiplicity=1, basis=def2-QZVPPD, AUX_BASIS_CORR=rimp2-def2-QZVPPD, SCF_ALGORITHM=GDM, xc_grid=000099000590, mem_total=7500, num_basis=768, num_pairs=260878, num_threads=2
C  0.0000000000  1.0552990000  0.0000000000
C  1.0552990000  0.0000000000  0.0000000000
C  -1.0552990000  0.0000000000  0.0000000000
C  0.0000000000  -1.0552990000  0.0000000000
C  0.0000000000  2.3854770000  0.0000000000
C  2.3854770000  0.0000000000  0.0000000000
C  -2.3854770000  0.0000000000  0.0000000000
C  0.0000000000  -2.3854770000  0.0000000000
H  -0.9224950000  2.9503910000  0.0000000000
H  0.9224950000  2.9503910000  0.0000000000
H  2.9503910000  0.9224950000  0.0000000000
H  2.9503910000  -0.9224950000  0.0000000000
H  -2.9503910000  0.9224950000  0.0000000000
H  -2.9503910000  -0.9224950000  0.0000000000
H  -0.9224950000  -2.9503910000  0.0000000000
H  0.9224950000  -2.9503910000  0.0000000000