7
charge=0, multiplicity=1, basis=def2-QZVPPD, AUX_BASIS_CORR=rimp2-def2-QZVPPD, SCF_ALGORITHM=GDM, xc_grid=000099000590, mem_total=3750, num_basis=324, num_pairs=37849, num_threads=1
C  -1.0068672190  -0.0305682130  -0.0247728540
H  0.0590033290  -0.0609397370  -0.0493656180
C  -2.2187437960  0.0031734700  0.0025991960
H  -3.2792773020  0.0335249060  0.0272004800
O  4.5182425730  -0.2320978930  -0.1830581750
H  5.0885989880  -0.8218672740  0.3139687510
H  5.0902384150  0.1188901290  -0.8684303290