6
charge=-1, multiplicity=1, basis=def2-QZVPPD, AUX_BASIS_CORR=rimp2-def2-QZVPPD, SCF_ALGORITHM=GDM, xc_grid=000099000590, mem_total=3750, num_basis=451, num_pairs=86100, num_threads=1
Se  0.0000000000  0.0000018782  -0.8194764720
Cl  0.0000000000  -0.0000084297  -3.6889513499
P  0.0000000000  -0.0000047592  1.2546132901
F  0.0000000000  1.3574531475  2.0670945695
F  -1.1755782906  -0.6787209184  2.0670599811
F  1.1755782906  -0.6787209184  2.0670599811