10
charge=-1, multiplicity=1, basis=def2-QZVPPD, AUX_BASIS_CORR=rimp2-def2-QZVPPD, SCF_ALGORITHM=GDM, xc_grid=000099000590, mem_total=3750, num_basis=489, num_pairs=110562, num_threads=1
O  8.9760000000  28.1840000000  5.3360000000
H  9.7970000000  28.0260000000  4.8600000000
H  8.6000000000  28.9530000000  4.8600000000
C  7.7070000000  31.0210000000  3.9640000000
O  8.1010000000  31.6630000000  2.9630000000
O  7.0680000000  29.9580000000  3.8280000000
C  8.0140000000  31.5330000000  5.3870000000
H  7.4650000000  32.4670000000  5.5520000000
H  7.6600000000  30.8120000000  6.1450000000
H  9.0818430000  31.7297500000  5.5630730000