5
charge=0, multiplicity=1, basis=def2-QZVPPD, AUX_BASIS_CORR=rimp2-def2-QZVPPD, SCF_ALGORITHM=GDM, xc_grid=000099000590, mem_total=3750, num_basis=372, num_pairs=65053, num_threads=1
Se  0.0000000000  0.0000014350  -0.7715240424
P  0.0000000000  -0.0000051446  1.2930831306
F  0.0000000000  1.3578150365  2.0983939570
F  -1.1758915741  -0.6789018515  2.0983604398
F  1.1758915741  -0.6789018515  2.0983604398