8
charge=0, multiplicity=1, basis=def2-QZVPPD, AUX_BASIS_CORR=rimp2-def2-QZVPPD, SCF_ALGORITHM=GDM, xc_grid=000099000590, mem_total=3750, num_basis=324, num_pairs=48263, num_threads=1
N  -1.5885061180  0.0000000000  0.0340481730
N  1.6420458590  0.0000000000  -0.0594151430
H  0.6970302470  0.0000000000  0.3138446310
H  -1.3024710030  0.0000000000  -0.9385869980
H  -2.1809804580  -0.8115443750  0.1627821130
H  -2.1809804580  0.8115443750  0.1627821130
H  2.1116970030  -0.8106376490  0.3258433840
H  2.1116970030  0.8106376490  0.3258433840