13
charge=0, multiplicity=1, basis=def2-QZVPPD, AUX_BASIS_CORR=rimp2-def2-QZVPPD, SCF_ALGORITHM=GDM, xc_grid=000099000590, mem_total=3750, num_basis=585, num_pairs=156264, num_threads=1
C  0.0000000000  0.0000000000  1.6382680000
H  0.0000000000  0.0000000000  2.7253220000
N  0.0000000000  1.1594690000  1.0279330000
H  0.0294370000  1.2609340000  -0.0884740000
H  -0.0156530000  1.9794860000  1.6098150000
H  -0.0294370000  -1.2609340000  -0.0884740000
O  -0.0094240000  1.2048290000  -1.5225990000
N  0.0000000000  -1.1594690000  1.0279330000
H  0.0156530000  -1.9794860000  1.6098150000
O  0.0094240000  -1.2048290000  -1.5225990000
H  0.0000000000  0.0000000000  -1.6436500000
H  -0.7395530000  -1.5804600000  -1.9917220000
H  0.7395530000  1.5804600000  -1.9917220000