3
charge=0, multiplicity=1, basis=def2-QZVPPD, AUX_BASIS_CORR=rimp2-def2-QZVPPD, SCF_ALGORITHM=GDM, xc_grid=000099000590, mem_total=3750, num_basis=132, num_pairs=9017, num_threads=1
O  2.4105980000  0.0000000000  5.0185290000
H  2.5756730000  0.7591530000  5.5854400000
H  2.5756730000  -0.7591530000  5.5854400000