11
charge=0, multiplicity=1, basis=def2-QZVPPD, AUX_BASIS_CORR=rimp2-def2-QZVPPD, SCF_ALGORITHM=GDM, xc_grid=000099000590, mem_total=3750, num_basis=513, num_pairs=129002, num_threads=1
C  -0.0531030000  0.0000000000  -0.2626820000
C  -0.1725900000  0.0000000000  1.2300610000
C  1.0657510000  0.0000000000  1.7780680000
C  2.0579970000  0.0000000000  0.7050070000
C  1.4264420000  0.0000000000  -0.4924750000
H  1.8920540000  0.0000000000  -1.4668260000
H  1.3014940000  0.0000000000  2.8328510000
H  3.1280040000  0.0000000000  0.8567160000
H  -1.1111540000  0.0000000000  1.7643230000
H  -0.5325170000  -0.8778200000  -0.7086390000
H  -0.5325170000  0.8778200000  -0.7086390000