4
charge=0, multiplicity=1, basis=def2-QZVPPD, AUX_BASIS_CORR=rimp2-def2-QZVPPD, SCF_ALGORITHM=GDM, xc_grid=000099000590, mem_total=3750, num_basis=162, num_pairs=13492, num_threads=1
N  0.0000000000  -0.0000099296  -4.2233331797
H  0.0000000000  -0.9385721890  -4.6101969842
H  -0.8128122095  0.4692857638  -4.6100931864
H  0.8128122095  0.4692857638  -4.6100931864