9
charge=0, multiplicity=1, basis=def2-QZVPPD, AUX_BASIS_CORR=rimp2-def2-QZVPPD, SCF_ALGORITHM=GDM, xc_grid=000099000590, mem_total=3750, num_basis=515, num_pairs=102929, num_threads=1
S  0.0000000000  -0.0000309152  -0.9266177392
N  0.0000000000  -0.0000099296  -4.2233331797
P  0.0000000000  -0.0000073859  0.9593712485
F  0.0000000000  1.3628544090  1.7058489453
F  -1.1802437055  -0.6814027585  1.7058570411
F  1.1802437055  -0.6814027585  1.7058570411
H  0.0000000000  -0.9385721890  -4.6101969842
H  -0.8128122095  0.4692857638  -4.6100931864
H  0.8128122095  0.4692857638  -4.6100931864