3
charge=0, multiplicity=1, basis=def2-QZVPPD, AUX_BASIS_CORR=rimp2-def2-QZVPPD, SCF_ALGORITHM=GDM, xc_grid=000099000590, mem_total=3750, num_basis=132, num_pairs=9017, num_threads=1
O  1.0977220000  -2.9387450000  0.8655630000
H  1.6801330000  -2.3521920000  0.3695600000
H  0.7512450000  -2.3521870000  1.5475970000