5
charge=-1, multiplicity=1, basis=def2-QZVPPD, AUX_BASIS_CORR=rimp2-def2-QZVPPD, SCF_ALGORITHM=GDM, xc_grid=000099000590, mem_total=3750, num_basis=353, num_pairs=58914, num_threads=1
Cl  2.2242961205  -0.0634470641  0.0000000000
P  -0.4319829485  -0.2735847606  0.0000000000
F  -0.3968502727  0.7763806919  1.2013591842
F  -0.3968502727  0.7763806919  -1.2013591842
F  -2.0952326267  -0.2851795591  0.0000000000