16
charge=0, multiplicity=1, basis=def2-QZVPPD, AUX_BASIS_CORR=rimp2-def2-QZVPPD, SCF_ALGORITHM=GDM, xc_grid=000099000590, mem_total=7500, num_basis=768, num_pairs=225303, num_threads=2
C  -0.3403770000  -1.7033780000  0.0000000000
C  -1.1909050000  -2.8689500000  0.0000000000
C  -0.8074730000  -0.4371570000  0.0000000000
C  -0.7411140000  -4.1285160000  0.0000000000
C  0.0000000000  0.7153220000  0.0000000000
C  1.4678080000  2.8897540000  0.0000000000
C  0.6554390000  1.7335350000  0.0000000000
C  1.0106640000  4.1471800000  0.0000000000
H  0.7314990000  -1.8689700000  0.0000000000
H  -1.8816870000  -0.2756180000  0.0000000000
H  -0.0481550000  4.3659600000  0.0000000000
H  1.6944930000  4.9838990000  0.0000000000
H  2.5396290000  2.7173310000  0.0000000000
H  -1.4174550000  -4.9713500000  0.0000000000
H  0.3189640000  -4.3497770000  0.0000000000
H  -2.2615410000  -2.6882110000  0.0000000000