4
charge=0, multiplicity=1, basis=def2-QZVPPD, AUX_BASIS_CORR=rimp2-def2-QZVPPD, SCF_ALGORITHM=GDM, xc_grid=000099000590, mem_total=3750, num_basis=228, num_pairs=24131, num_threads=1
O  0.0000000000  0.0000000000  -1.1374943371
C  0.0000000000  0.0000000000  -0.0090068958
H  0.0000000000  0.0000000000  2.0723818087
F  0.0000000000  0.0000000000  2.9961497542