6
charge=0, multiplicity=1, basis=def2-QZVPPD, AUX_BASIS_CORR=rimp2-def2-QZVPPD, SCF_ALGORITHM=GDM, xc_grid=000099000590, mem_total=3750, num_basis=358, num_pairs=54028, num_threads=1
Br  0.0000000000  0.0000000000  1.6483620000
Br  0.0000000000  0.0000000000  -0.6650270000
N  0.0000000000  0.0000000000  -3.3348810000
H  0.0000000000  0.9457070000  -3.6908570000
H  -0.8190060000  -0.4728530000  -3.6908570000
H  0.8190060000  -0.4728530000  -3.6908570000