6
charge=-1, multiplicity=1, basis=def2-QZVPPD, AUX_BASIS_CORR=rimp2-def2-QZVPPD, SCF_ALGORITHM=GDM, xc_grid=000099000590, mem_total=3750, num_basis=307, num_pairs=44526, num_threads=1
F  0.0000000000  0.0000000000  -1.8899361232
C  0.0000000000  0.0000000000  -0.4815627273
H  -0.5123599590  0.8874334808  -0.1278024701
H  -0.5123599590  -0.8874334808  -0.1278024701
H  1.0247199181  0.0000000000  -0.1278024701
Cl  0.0000000000  0.0000000000  2.7549062610