5
charge=-1, multiplicity=1, basis=def2-QZVPPD, AUX_BASIS_CORR=rimp2-def2-QZVPPD, SCF_ALGORITHM=GDM, xc_grid=000099000590, mem_total=3750, num_basis=372, num_pairs=64820, num_threads=1
Cl  2.2058648373  -0.0705941428  0.0000000000
As  -0.3557719807  -0.3350601348  0.0000000000
F  -0.3850041411  0.8243913792  1.2978186450
F  -0.3850041411  0.8243913792  -1.2978186450
F  -2.1766945746  -0.3125984808  0.0000000000