6
charge=-1, multiplicity=1, basis=def2-QZVPPD, AUX_BASIS_CORR=rimp2-def2-QZVPPD, SCF_ALGORITHM=GDM, xc_grid=000099000590, mem_total=3750, num_basis=307, num_pairs=45811, num_threads=1
F  0.0000000000  0.0000000000  -1.9968087527
C  0.0000000000  0.0000000000  0.0527475024
H  -0.5310425605  0.9197926957  -0.0738528535
H  -0.5310425605  -0.9197926957  -0.0738528535
H  1.0620851209  0.0000000000  -0.0738528535
Cl  0.0000000000  0.0000000000  2.1656198108