7
charge=0, multiplicity=1, basis=def2-QZVPPD, AUX_BASIS_CORR=rimp2-def2-QZVPPD, SCF_ALGORITHM=GDM, xc_grid=000099000590, mem_total=3750, num_basis=437, num_pairs=78495, num_threads=1
Br  2.2816130000  -0.2250490000  -0.0000380000
Br  0.0542710000  0.3326650000  0.0000720000
O  -2.5857590000  0.8063930000  -0.0001770000
P  -3.3400980000  -0.4791200000  0.0000020000
H  -3.1121830000  -1.3364310000  1.0962060000
H  -3.1119920000  -1.3368510000  -1.0958360000
H  -4.7442090000  -0.3576360000  -0.0001450000