15
charge=0, multiplicity=1, basis=def2-QZVPPD, AUX_BASIS_CORR=rimp2-def2-QZVPPD, SCF_ALGORITHM=GDM, xc_grid=000099000590, mem_total=7500, num_basis=708, num_pairs=208438, num_threads=2
C  0.0000000000  0.0000000000  0.4599580000
C  0.0000000000  1.2055440000  -0.2414830000
C  0.0000000000  1.2070370000  -1.6359000000
C  0.0000000000  0.0000000000  -2.3338100000
C  0.0000000000  -1.2070370000  -1.6359000000
C  0.0000000000  -1.2055440000  -0.2414830000
H  0.0000000000  0.0000000000  1.5425030000
H  0.0000000000  2.1435180000  0.2992670000
H  0.0000000000  2.1446960000  -2.1770350000
H  0.0000000000  0.0000000000  -3.4163560000
H  0.0000000000  -2.1446960000  -2.1770350000
H  0.0000000000  -2.1435180000  0.2992670000
O  0.0000000000  0.0000000000  3.9990750000
H  0.0000000000  -0.7587450000  4.5900720000
H  0.0000000000  0.7587450000  4.5900720000