8
charge=0, multiplicity=2, basis=def2-QZVPPD, AUX_BASIS_CORR=rimp2-def2-QZVPPD, SCF_ALGORITHM=GDM, xc_grid=000099000590, mem_total=3750, num_basis=387, num_pairs=73562, num_threads=1
C  -0.8313490000  0.4499050000  0.0939860000
H  -1.4086140000  1.3474520000  0.3568630000
O  -1.3567070000  -0.6414150000  -0.0566390000
N  0.4914160000  0.7034660000  -0.1699770000
C  1.4410590000  -0.3450610000  0.0581800000
H  0.9825690000  -1.2916620000  0.3487530000
H  2.0641500000  -0.4695720000  -0.8300520000
H  2.1173770000  -0.0082270000  0.8543970000