7
charge=0, multiplicity=1, basis=def2-QZVPPD, AUX_BASIS_CORR=rimp2-def2-QZVPPD, SCF_ALGORITHM=GDM, xc_grid=000099000590, mem_total=3750, num_basis=294, num_pairs=41133, num_threads=1
O  0.0000000000  -0.0578657100  -1.4797930300
H  0.0000000000  0.8229338400  -1.8554147400
H  0.0000000000  0.0794956700  -0.5193425300
N  0.0000000000  0.0143639400  1.4645462800
H  0.0000000000  -0.9810485700  1.6534477900
H  -0.8134835100  0.3987677600  1.9293404900
H  0.8134835100  0.3987677600  1.9293404900