3
charge=0, multiplicity=1, basis=def2-QZVPPD, AUX_BASIS_CORR=rimp2-def2-QZVPPD, SCF_ALGORITHM=GDM, xc_grid=000099000590, mem_total=3750, num_basis=132, num_pairs=9017, num_threads=1
O  0.0625477500  0.0000000000  -1.4226320800
H  -0.4069654000  -0.7601784100  -1.7717445000
H  -0.4069654000  0.7601784100  -1.7717445000