3
charge=0, multiplicity=1, basis=def2-QZVPPD, AUX_BASIS_CORR=rimp2-def2-QZVPPD, SCF_ALGORITHM=GDM, xc_grid=000099000590, mem_total=3750, num_basis=159, num_pairs=13024, num_threads=1
H  0.0000000000  0.0000000000  -0.5937749200
C  0.0000000000  0.0000000000  -1.6680982400
N  0.0000000000  0.0000000000  -2.8252505600