4
charge=0, multiplicity=1, basis=def2-QZVPPD, AUX_BASIS_CORR=rimp2-def2-QZVPPD, SCF_ALGORITHM=GDM, xc_grid=000099000590, mem_total=3750, num_basis=162, num_pairs=13492, num_threads=1
N  0.0499812900  1.5870932300  0.0000000000
H  -0.1229626500  2.1684601800  0.8110597600
H  -0.6598858000  0.8623529800  0.0000000000
H  -0.1229626500  2.1684601800  -0.8110597600