9
charge=0, multiplicity=1, basis=def2-QZVPPD, AUX_BASIS_CORR=rimp2-def2-QZVPPD, SCF_ALGORITHM=GDM, xc_grid=000099000590, mem_total=3750, num_basis=357, num_pairs=54330, num_threads=1
N  0.0000000000  0.0000000000  1.8483365900
H  0.9373097900  0.0000000000  2.2320674100
H  -0.4686548900  -0.8117340900  2.2320674100
H  -0.4686548900  0.8117340900  2.2320674100
H  0.0000000000  0.0000000000  -0.9449717400
C  0.0000000000  0.0000000000  -2.0336375200
H  0.5125143900  0.8877009600  -2.4009512500
H  0.5125143900  -0.8877009600  -2.4009512500
H  -1.0250287800  0.0000000000  -2.4009512500