4
charge=0, multiplicity=1, basis=def2-QZVPPD, AUX_BASIS_CORR=rimp2-def2-QZVPPD, SCF_ALGORITHM=GDM, xc_grid=000099000590, mem_total=3750, num_basis=162, num_pairs=13492, num_threads=1
N  0.0000000000  0.0000000000  1.8483365900
H  0.9373097900  0.0000000000  2.2320674100
H  -0.4686548900  -0.8117340900  2.2320674100
H  -0.4686548900  0.8117340900  2.2320674100