5
charge=0, multiplicity=1, basis=def2-QZVPPD, AUX_BASIS_CORR=rimp2-def2-QZVPPD, SCF_ALGORITHM=GDM, xc_grid=000099000590, mem_total=3750, num_basis=195, num_pairs=19452, num_threads=1
C  0.0006901600  0.0000000000  -1.9998552000
H  -0.5074174000  0.8875945200  -2.3729060500
H  1.0305274900  0.0000000000  -2.3528298200
H  -0.0131439600  0.0000000000  -0.9119085200
H  -0.5074174000  -0.8875945200  -2.3729060500