3
charge=0, multiplicity=1, basis=def2-QZVPPD, AUX_BASIS_CORR=rimp2-def2-QZVPPD, SCF_ALGORITHM=GDM, xc_grid=000099000590, mem_total=3750, num_basis=132, num_pairs=9017, num_threads=1
O  -0.0047255300  0.0000000000  1.7159746600
H  0.0321186300  0.7575545900  2.3017204400
H  0.0321186300  -0.7575545900  2.3017204400