4
charge=0, multiplicity=1, basis=def2-QZVPPD, AUX_BASIS_CORR=rimp2-def2-QZVPPD, SCF_ALGORITHM=GDM, xc_grid=000099000590, mem_total=3750, num_basis=195, num_pairs=19475, num_threads=1
C  0.0000000000  -0.6020047600  1.5522886600
O  0.0000000000  0.5923863800  1.3551132800
H  0.0000000000  -1.0093798200  2.5752463500
H  0.0000000000  -1.3200290600  0.7169499700