3
charge=0, multiplicity=1, basis=def2-QZVPPD, AUX_BASIS_CORR=rimp2-def2-QZVPPD, SCF_ALGORITHM=GDM, xc_grid=000099000590, mem_total=3750, num_basis=132, num_pairs=9017, num_threads=1
H  -0.7968562700  0.0000000000  -2.5091103800
O  0.0434744500  0.0000000000  -2.0483405400
H  -0.1906754600  0.0000000000  -1.1157694400