6
charge=0, multiplicity=1, basis=def2-QZVPPD, AUX_BASIS_CORR=rimp2-def2-QZVPPD, SCF_ALGORITHM=GDM, xc_grid=000099000590, mem_total=3750, num_basis=258, num_pairs=33789, num_threads=1
C  0.0105882500  -0.6680624600  1.2982080900
C  0.0105882500  0.6680624600  1.2982080900
H  0.8686321600  1.2326793300  0.9542681500
H  -0.8460828500  1.2325849500  1.6452538500
H  -0.8460828500  -1.2325849500  1.6452538500
H  0.8686321600  -1.2326793300  0.9542681500