6
charge=0, multiplicity=1, basis=def2-QZVPPD, AUX_BASIS_CORR=rimp2-def2-QZVPPD, SCF_ALGORITHM=GDM, xc_grid=000099000590, mem_total=3750, num_basis=258, num_pairs=33789, num_threads=1
C  0.0000000000  -0.5979708900  1.4774286400
C  0.0000000000  0.4213119600  2.3395784800
H  0.9211335100  -1.0295710200  1.1065351600
H  -0.9211335100  -1.0295710200  1.1065351600
H  -0.9239381500  0.8512482600  2.7069463300
H  0.9239381500  0.8512482600  2.7069463300