4
charge=0, multiplicity=1, basis=def2-QZVPPD, AUX_BASIS_CORR=rimp2-def2-QZVPPD, SCF_ALGORITHM=GDM, xc_grid=000099000590, mem_total=3750, num_basis=192, num_pairs=18798, num_threads=1
C  0.0000000000  0.6035640000  -2.1817343800
H  0.0000000000  1.6684758100  -2.1842961000
C  0.0000000000  -0.6035640000  -2.1817343800
H  0.0000000000  -1.6684758100  -2.1842961000