8
charge=0, multiplicity=1, basis=def2-QZVPPD, AUX_BASIS_CORR=rimp2-def2-QZVPPD, SCF_ALGORITHM=GDM, xc_grid=000099000590, mem_total=3750, num_basis=384, num_pairs=64034, num_threads=1
C  0.0000000000  0.6035640000  -2.1817343800
H  0.0000000000  1.6684758100  -2.1842961000
C  0.0000000000  -0.6035640000  -2.1817343800
H  0.0000000000  -1.6684758100  -2.1842961000
C  0.0000000000  0.0000000000  1.5782951300
H  0.0000000000  0.0000000000  0.5113619300
C  0.0000000000  0.0000000000  2.7857654300
H  0.0000000000  0.0000000000  3.8501785900