4
charge=0, multiplicity=1, basis=def2-QZVPPD, AUX_BASIS_CORR=rimp2-def2-QZVPPD, SCF_ALGORITHM=GDM, xc_grid=000099000590, mem_total=3750, num_basis=162, num_pairs=13492, num_threads=1
N  0.0000000000  -0.0040137900  -2.3109670100
H  -0.8112254900  -0.4598306000  -2.7104388100
H  0.0000000000  -0.2224943200  -1.3212816100
H  0.8112254900  -0.4598306000  -2.7104388100