6
charge=0, multiplicity=1, basis=def2-QZVPPD, AUX_BASIS_CORR=rimp2-def2-QZVPPD, SCF_ALGORITHM=GDM, xc_grid=000099000590, mem_total=3750, num_basis=258, num_pairs=33789, num_threads=1
H  0.0000000000  1.2334494800  2.8293179200
H  0.0000000000  1.2254714800  0.9777619900
H  0.0000000000  -1.2254714800  0.9777619900
H  0.0000000000  -1.2334494800  2.8293179200
C  0.0000000000  -0.6671169800  1.9060104200
C  0.0000000000  0.6671169800  1.9060104200