6
charge=0, multiplicity=1, basis=def2-QZVPPD, AUX_BASIS_CORR=rimp2-def2-QZVPPD, SCF_ALGORITHM=GDM, xc_grid=000099000590, mem_total=3750, num_basis=258, num_pairs=33789, num_threads=1
C  0.0000000000  0.6463438500  -1.6084981500
C  0.0000000000  -0.6791435500  -1.4538167500
H  -0.9239996100  -1.2401622300  -1.3878488300
H  0.9239996100  -1.2401622300  -1.3878488300
H  0.9240360700  1.2073760200  -1.6735728500
H  -0.9240360700  1.2073760200  -1.6735728500