11
charge=0, multiplicity=1, basis=def2-QZVPPD, AUX_BASIS_CORR=rimp2-def2-QZVPPD, SCF_ALGORITHM=GDM, xc_grid=000099000590, mem_total=3750, num_basis=453, num_pairs=87163, num_threads=1
C  0.0000000000  0.6463438500  -1.6084981500
C  0.0000000000  -0.6791435500  -1.4538167500
H  -0.9239996100  -1.2401622300  -1.3878488300
H  0.9239996100  -1.2401622300  -1.3878488300
H  0.9240360700  1.2073760200  -1.6735728500
H  -0.9240360700  1.2073760200  -1.6735728500
H  0.0000000000  0.0829541100  1.5901671100
C  0.0000000000  0.0287150900  2.6771178500
H  0.8882545900  0.5226199000  3.0666402900
H  -0.8882545900  0.5226199000  3.0666402900
H  0.0000000000  -1.0139480000  2.9895522700