8
charge=0, multiplicity=1, basis=def2-QZVPPD, AUX_BASIS_CORR=rimp2-def2-QZVPPD, SCF_ALGORITHM=GDM, xc_grid=000099000590, mem_total=3750, num_basis=324, num_pairs=53089, num_threads=1
C  0.0000000000  0.0000000000  0.7614340500
C  0.0000000000  0.0000000000  2.2882171500
H  -0.6171119300  -0.8082439700  0.3657152700
H  -0.3914038500  0.9385565900  0.3657152700
H  1.0085157700  -0.1303126200  0.3657152700
H  -1.0089170300  0.1303129500  2.6825829600
H  0.3916041800  -0.9389042500  2.6825829600
H  0.6173128400  0.8085913000  2.6825829600