10
charge=0, multiplicity=1, basis=def2-QZVPPD, AUX_BASIS_CORR=rimp2-def2-QZVPPD, SCF_ALGORITHM=GDM, xc_grid=000099000590, mem_total=3750, num_basis=450, num_pairs=93363, num_threads=1
H  -0.9239610000  1.2319560000  -1.6847812300
H  0.9239610000  1.2319560000  -1.6847812300
H  0.9239610000  -1.2319560000  -1.6847812300
H  -0.9239610000  -1.2319560000  -1.6847812300
C  0.0000000000  0.6671760000  -1.6847812300
C  0.0000000000  -0.6671760000  -1.6847812300
H  0.0000000000  -1.6678650000  1.8152187700
H  0.0000000000  1.6678650000  1.8152187700
C  0.0000000000  -0.6033970000  1.8152187700
C  0.0000000000  0.6033970000  1.8152187700