5
charge=0, multiplicity=1, basis=def2-QZVPPD, AUX_BASIS_CORR=rimp2-def2-QZVPPD, SCF_ALGORITHM=GDM, xc_grid=000099000590, mem_total=3750, num_basis=368, num_pairs=52290, num_threads=1
Br  0.0000000000  0.0000000000  2.3634360000
Br  0.0000000000  0.0000000000  0.0835510000
P  0.0000000000  0.0000000000  -3.3592170000
C  0.0000000000  0.0000000000  -4.8835250000
H  0.0000000000  0.0000000000  -5.9551390000