3
charge=0, multiplicity=1, basis=def2-QZVPPD, AUX_BASIS_CORR=rimp2-def2-QZVPPD, SCF_ALGORITHM=GDM, xc_grid=000099000590, mem_total=3750, num_basis=132, num_pairs=9017, num_threads=1
O  0.3047890000  0.0000000000  4.4370010000
H  0.5374180000  0.0000000000  3.5002410000
H  -0.6567060000  0.0000000000  4.4264290000