8
charge=0, multiplicity=1, basis=def2-QZVPPD, AUX_BASIS_CORR=rimp2-def2-QZVPPD, SCF_ALGORITHM=GDM, xc_grid=000099000590, mem_total=3750, num_basis=452, num_pairs=97311, num_threads=1
C  1.5562560000  -0.0706620000  0.0218590000
O  2.5605490000  -0.7326940000  -0.1644210000
N  1.5188280000  1.2831170000  0.0335900000
H  0.6881210000  1.7985800000  0.2590840000
H  2.3944080000  1.7662920000  -0.0490170000
N  0.3629490000  -0.7479160000  0.3213550000
Br  -1.3275970000  0.0189890000  -0.0418940000
H  0.3890100000  -1.6903780000  -0.0441760000