13
charge=0, multiplicity=1, basis=def2-QZVPPD, AUX_BASIS_CORR=rimp2-def2-QZVPPD, SCF_ALGORITHM=GDM, xc_grid=000099000590, mem_total=3750, num_basis=549, num_pairs=147136, num_threads=1
N  -0.5095860538  -4.1737762135  3.8273902746
C  -0.5629495069  -3.4418780061  5.0917297273
C  -1.8583381796  -4.3255587122  3.2839670806
C  0.1064622468  -5.4847492986  4.0261388556
H  -2.5254481653  -4.8974272589  3.9678554732
H  -2.2994587866  -3.3313045482  3.1152099079
H  -1.8106894205  -4.8522225032  2.3183501703
H  -0.4657950693  -6.1154967342  4.7440496275
H  0.1614842201  -6.0158417078  3.0635066932
H  1.1287635025  -5.3566624087  4.4136821739
H  -1.1748670775  -3.9697511277  5.8579336452
H  0.4563536551  -3.3105375837  5.4862654857
H  -0.9977251516  -2.4453305580  4.9187355870