4
charge=0, multiplicity=1, basis=def2-QZVPPD, AUX_BASIS_CORR=rimp2-def2-QZVPPD, SCF_ALGORITHM=GDM, xc_grid=000099000590, mem_total=3750, num_basis=192, num_pairs=18756, num_threads=1
C  4.2982998734  0.5886696130  1.2416628642
C  5.1605341823  0.8310831885  0.3946462819
H  3.5351755329  0.3832895360  1.9753479793
H  5.9159110019  1.0385718073  -0.3415062162