3
charge=0, multiplicity=1, basis=def2-QZVPPD, AUX_BASIS_CORR=rimp2-def2-QZVPPD, SCF_ALGORITHM=GDM, xc_grid=000099000590, mem_total=3750, num_basis=132, num_pairs=9017, num_threads=1
O  -0.4742686168  -3.6214382518  5.9013920027
H  -0.7005242804  -2.8410748376  5.3574424596
H  -0.1200737228  -3.2668255285  6.7256600056