3
charge=0, multiplicity=1, basis=def2-QZVPPD, AUX_BASIS_CORR=rimp2-def2-QZVPPD, SCF_ALGORITHM=GDM, xc_grid=000099000590, mem_total=3750, num_basis=132, num_pairs=9017, num_threads=1
O  2.0936665395  0.0000000000  2.4847178637
H  2.5115150730  0.5267222693  1.7790190620
H  2.8080738243  -0.1845082618  3.1066451879