3
charge=0, multiplicity=1, basis=def2-QZVPPD, AUX_BASIS_CORR=rimp2-def2-QZVPPD, SCF_ALGORITHM=GDM, xc_grid=000099000590, mem_total=3750, num_basis=132, num_pairs=9017, num_threads=1
O  -1.4137713791  -2.0758831636  -0.5614978147
H  -0.9962896683  -1.2941156619  -0.1480445209
H  -1.3804121875  -2.7590976140  0.1187107445