16
charge=0, multiplicity=1, basis=def2-QZVPPD, AUX_BASIS_CORR=rimp2-def2-QZVPPD, SCF_ALGORITHM=GDM, xc_grid=000099000590, mem_total=7500, num_basis=768, num_pairs=245134, num_threads=2
C  1.0088979957  0.6761737693  0.2245107930
H  1.8497526612  1.3745921609  0.2546183693
C  1.2487457597  -0.7100066638  0.2720104837
H  2.2746306400  -1.0829417962  0.3373671683
C  0.1690427920  -1.6133349472  0.2243104941
H  0.3562728325  -2.6910000721  0.2588401816
C  -1.1502038361  -1.1312806589  0.1294818022
H  -1.9889332007  -1.8332643114  0.0890491648
C  -1.3903655527  0.2561000773  0.0795006057
H  -2.4154910331  0.6310872234  0.0000996352
C  -0.3109454518  1.1587059795  0.1263505108
H  -0.4974180275  2.2363121015  0.0858490423
C  4.2982998734  0.5886696130  1.2416628642
C  5.1605341823  0.8310831885  0.3946462819
H  3.5351755329  0.3832895360  1.9753479793
H  5.9159110019  1.0385718073  -0.3415062162