12
charge=0, multiplicity=1, basis=def2-QZVPPD, AUX_BASIS_CORR=rimp2-def2-QZVPPD, SCF_ALGORITHM=GDM, xc_grid=000099000590, mem_total=7500, num_basis=641, num_pairs=188437, num_threads=2
C  0.0167754817  -0.1112990990  -0.2103780062
C  0.0854913129  -0.1489873865  1.1943152635
C  0.0226098262  1.0317262646  1.9564137673
C  -0.1137363285  2.2663552157  1.2964110330
C  -0.1823813088  2.3213838196  -0.1089469018
C  -0.1172535540  1.1315800169  -0.8581250382
Br  0.2298782104  -1.8241860750  2.0880979349
H  0.0673408806  0.9802087200  3.0468488678
H  -0.1702741007  3.1860338826  1.8862636326
H  -0.2873078333  3.2844408932  -0.6167165476
H  -0.1692857544  1.1660901419  -1.9507137465
H  0.0661750915  -1.0405349795  -0.7841991379