12
charge=0, multiplicity=1, basis=def2-QZVPPD, AUX_BASIS_CORR=rimp2-def2-QZVPPD, SCF_ALGORITHM=GDM, xc_grid=000099000590, mem_total=3750, num_basis=576, num_pairs=158334, num_threads=1
C  -0.1184113566  0.4552550983  0.1249998394
H  -0.1541507683  0.7216765273  1.1856385635
C  -0.0276368676  1.4670584375  -0.8524016640
H  0.0104233110  2.5179385345  -0.5508110606
C  0.0185487853  1.1232356337  -2.2193024364
H  0.0962835751  1.9078864819  -2.9773286762
C  -0.0218227372  -0.2302836002  -2.6068431406
H  0.0373222654  -0.5020156633  -3.6641588404
C  -0.1119544032  -1.2406676954  -1.6298736821
H  -0.1218897668  -2.2902366852  -1.9355881869
C  -0.1632966832  -0.8982789699  -0.2652443147
H  -0.2305793794  -1.6833517599  0.4937242148