3
charge=0, multiplicity=1, basis=def2-QZVPPD, AUX_BASIS_CORR=rimp2-def2-QZVPPD, SCF_ALGORITHM=GDM, xc_grid=000099000590, mem_total=3750, num_basis=132, num_pairs=9017, num_threads=1
O  3.1204964844  0.1549328710  -1.3248488741
H  3.4649238829  -0.0197513614  -0.4394733967
H  2.2065165033  0.4408132156  -1.1657106811