9
charge=0, multiplicity=1, basis=def2-QZVPPD, AUX_BASIS_CORR=rimp2-def2-QZVPPD, SCF_ALGORITHM=GDM, xc_grid=000099000590, mem_total=3750, num_basis=393, num_pairs=71635, num_threads=1
O  -0.4742686168  -3.6214382518  5.9013920027
H  -0.7005242804  -2.8410748376  5.3574424596
H  -0.1200737228  -3.2668255285  6.7256600056
O  0.4456178567  -4.5326112985  3.4170865754
H  0.3551476975  -4.4562139793  4.3868575315
C  -0.4628190996  -5.5621648675  2.9876173639
H  -0.3996078633  -5.6075389464  1.8925660174
H  -1.5000111170  -5.3303896752  3.2808092227
H  -0.1777942164  -6.5424729264  3.4016030066