4
charge=0, multiplicity=1, basis=def2-QZVPPD, AUX_BASIS_CORR=rimp2-def2-QZVPPD, SCF_ALGORITHM=GDM, xc_grid=000099000590, mem_total=3750, num_basis=195, num_pairs=19475, num_threads=1
C  1.5423568596  2.2629120580  0.1125339668
O  2.6317606370  1.7091383834  0.2340136237
H  1.3271801628  2.9179879607  -0.7552358417
H  0.7390601120  2.1281383101  0.8638683513