3
charge=0, multiplicity=1, basis=def2-QZVPPD, AUX_BASIS_CORR=rimp2-def2-QZVPPD, SCF_ALGORITHM=GDM, xc_grid=000099000590, mem_total=3750, num_basis=132, num_pairs=9017, num_threads=1
O  -2.8770558881  -2.0874155748  1.5810579020
H  -3.3381845014  -2.7118788262  2.1570203922
H  -3.5081770132  -1.3519019059  1.4869184542