15
charge=0, multiplicity=1, basis=def2-QZVPPD, AUX_BASIS_CORR=rimp2-def2-QZVPPD, SCF_ALGORITHM=GDM, xc_grid=000099000590, mem_total=7500, num_basis=708, num_pairs=229448, num_threads=2
C  -3.2166440262  1.5481571496  1.2379011575
H  -2.5779901129  1.8190451049  3.2925481975
C  -3.3350850266  1.3877015794  2.6320554331
H  -4.0755616450  1.0813187634  -0.7007347688
C  -4.1744454647  0.9682574217  0.3829328705
C  -4.4124072278  0.6594426573  3.1728478288
C  -5.2520091872  0.2338776562  0.9197488381
C  -5.3732818805  0.0825281624  2.3176195020
H  -4.5010565002  0.5360620687  4.2562431380
H  -5.9946737300  -0.2164087929  0.2542447298
H  -6.2126744945  -0.4815219552  2.7359228537
H  -2.3771244931  2.1107911158  0.8202450205
O  -2.8770558881  -2.0874155748  1.5810579020
H  -3.3381845014  -2.7118788262  2.1570203922
H  -3.5081770132  -1.3519019059  1.4869184542