9
charge=0, multiplicity=1, basis=def2-QZVPPD, AUX_BASIS_CORR=rimp2-def2-QZVPPD, SCF_ALGORITHM=GDM, xc_grid=000099000590, mem_total=3750, num_basis=393, num_pairs=69249, num_threads=1
O  -1.4137713791  -2.0758831636  -0.5614978147
H  -0.9962896683  -1.2941156619  -0.1480445209
H  -1.3804121875  -2.7590976140  0.1187107445
O  -0.0429363602  0.8767602928  -2.5582589313
H  0.6408499386  1.3749951600  -3.0240504613
C  -0.2630336888  -0.3688593308  -3.2647513348
H  -0.9542401207  -0.9574674174  -2.6508943441
H  0.6772971278  -0.9296029820  -3.3799805578
H  -0.7086134627  -0.1789679890  -4.2532171433