19
charge=0, multiplicity=1, basis=def2-QZVPPD, AUX_BASIS_CORR=rimp2-def2-QZVPPD, SCF_ALGORITHM=GDM, xc_grid=000099000590, mem_total=15000, num_basis=900, num_pairs=340032, num_threads=4
C  -0.1184113566  0.4552550983  0.1249998394
H  -0.1541507683  0.7216765273  1.1856385635
C  -0.0276368676  1.4670584375  -0.8524016640
H  0.0104233110  2.5179385345  -0.5508110606
C  0.0185487853  1.1232356337  -2.2193024364
H  0.0962835751  1.9078864819  -2.9773286762
C  -0.0218227372  -0.2302836002  -2.6068431406
H  0.0373222654  -0.5020156633  -3.6641588404
C  -0.1119544032  -1.2406676954  -1.6298736821
H  -0.1218897668  -2.2902366852  -1.9355881869
C  -0.1632966832  -0.8982789699  -0.2652443147
H  -0.2305793794  -1.6833517599  0.4937242148
O  3.1204964844  0.1549328710  -1.3248488741
H  3.4649238829  -0.0197513614  -0.4394733967
H  2.2065165033  0.4408132156  -1.1657106811
C  2.2872913194  -3.1008850944  -4.2471571914
C  2.5646300194  -2.2120041274  -3.4380098315
H  2.0465519311  -3.8741791823  -4.9537550301
H  2.8156005332  -1.4343254985  -2.7274442497