3
charge=0, multiplicity=1, basis=def2-QZVPPD, AUX_BASIS_CORR=rimp2-def2-QZVPPD, SCF_ALGORITHM=GDM, xc_grid=000099000590, mem_total=3750, num_basis=132, num_pairs=9017, num_threads=1
O  -3.2304713335  1.0441480519  0.6433892880
H  -3.1365717408  1.8804667652  1.1176990475
H  -2.3202728454  0.8487196207  0.3732067791