12
charge=0, multiplicity=1, basis=def2-QZVPPD, AUX_BASIS_CORR=rimp2-def2-QZVPPD, SCF_ALGORITHM=GDM, xc_grid=000099000590, mem_total=3750, num_basis=576, num_pairs=158334, num_threads=1
C  3.1496338226  1.2691661578  1.5302597139
C  3.2186398751  1.7671533865  0.2155907253
C  3.0562274921  2.1595704952  2.6182342907
C  3.1969655976  3.1572553649  -0.0121546147
C  3.0993411712  4.0474118091  1.0738341560
C  3.0270554675  3.5478190854  2.3894262451
H  2.9526424356  4.2397335524  3.2338651018
H  3.0834755035  5.1274029492  0.8971350566
H  3.1718497963  0.1895647486  1.7056674914
H  2.9969182387  1.7738004127  3.6396429716
H  3.2878532725  1.0748634997  -0.6284686057
H  3.2550303686  3.5450205133  -1.0338243746