9
charge=0, multiplicity=1, basis=def2-QZVPPD, AUX_BASIS_CORR=rimp2-def2-QZVPPD, SCF_ALGORITHM=GDM, xc_grid=000099000590, mem_total=3750, num_basis=448, num_pairs=93239, num_threads=1
C  0.0000000000  0.0000000000  0.0000000000
I  0.0000000000  0.0000000000  2.1613000001
H  0.0000000000  1.0423605433  -0.3370530335
H  0.9070798649  -0.5202319509  -0.3282999180
H  -0.9019271235  -0.5330540660  -0.3201578938
C  3.0390542410  1.3623990917  1.1878660451
O  3.2050425812  1.0028148357  0.0228436064
H  2.4539499978  2.2704997622  1.4323736260
H  3.4777766046  0.7937426541  2.0303759583