12
charge=0, multiplicity=1, basis=def2-QZVPPD, AUX_BASIS_CORR=rimp2-def2-QZVPPD, SCF_ALGORITHM=GDM, xc_grid=000099000590, mem_total=3750, num_basis=576, num_pairs=158334, num_threads=1
H  1.5118776866  -3.0525718613  0.7561829793
H  -0.5162083139  -2.9659621292  -3.0775804548
H  0.2129383246  -4.2221256364  -1.0385539705
H  1.3386834598  0.6360721173  -1.5223394285
H  2.0750507692  -0.6222446320  0.5143246145
H  0.0503288239  -0.5349736782  -3.3203354858
C  0.4396346331  -3.1564163180  -1.1353362975
C  0.0271763302  -2.4463499259  -2.2831934509
C  1.0719837823  -0.4184544344  -1.4059823554
C  1.4892851102  -1.1272033754  -0.2592810480
C  0.3438779760  -1.0786881452  -2.4177884032
C  1.1724391905  -2.4967621532  -0.1225988205