5
charge=-1, multiplicity=1, basis=def2-QZVPPD, AUX_BASIS_CORR=rimp2-def2-QZVPPD, SCF_ALGORITHM=GDM, xc_grid=000099000590, mem_total=3750, num_basis=241, num_pairs=27609, num_threads=1
N  0.0000000000  0.0000000000  0.0000000000
H  0.0000000000  0.0000000000  1.0206400000
H  0.0000000000  0.9812120480  -0.2809429238
H  -0.9067756260  -0.3757914237  -0.2833136545
Cl  -1.6908232689  2.8360108246  -1.4698912060