37
charge=0, multiplicity=1, basis=def2-QZVPPD, mem_total=120000, AUX_BASIS_CORR=rimp2-def2-QZVPPD, SCF_ALGORITHM=GDM, xc_grid=000099000590, num_basis=1766, num_pairs=1073650, num_threads=32
C  -0.2655451826  0.1172669097  -0.3111707388
C  -0.2801138775  0.0936234406  1.0960462422
C  -0.0239285817  1.2587300299  1.8430033672
C  0.2139540333  2.4699032881  1.1663477129
C  0.2069574895  2.5136736790  -0.2412826579
C  -0.0208490411  1.3336932001  -0.9755997997
Br  -0.7830541879  -1.5037113884  1.9911306306
H  -0.0302516014  1.2173276724  2.9353876078
H  0.3995363826  3.3813343679  1.7423097526
H  0.3815417939  3.4593632901  -0.7614497586
H  -0.0194253434  1.3589627945  -2.0693925752
H  -0.4676330933  -0.7982889464  -0.8729482790
N  -3.1577029058  -3.1780050370  3.0712142912
C  -3.3708224003  -2.3619069407  4.2648959961
C  -4.0137431497  -2.6937407186  1.9878711931
C  -3.4478894677  -4.5803004497  3.3608691653
H  -5.0944621989  -2.7672504289  2.2475205751
H  -3.7808369610  -1.6406604842  1.7735487797
H  -3.8292189896  -3.2873575038  1.0786176876
H  -4.5019785416  -4.7333328635  3.6891713336
H  -3.2739022777  -5.1869776763  2.4586794872
H  -2.7805705857  -4.9394341121  4.1599039658
H  -4.4219322986  -2.4217052135  4.6311483467
H  -2.6995476310  -2.6992499896  5.0703799881
H  -3.1462227377  -1.3106358812  4.0305106594
H  -2.4319890466  1.4712276611  0.4538081605
C  -3.3606025006  1.1576840299  0.9370660658
H  -2.6462202589  1.5935328273  2.9379975146
C  -3.4852619371  1.2292742193  2.3379575641
H  -4.3384591946  0.6187493717  -0.9248810329
C  -4.4361649213  0.6806271604  0.1632285262
C  -4.6869830267  0.8421912974  2.9624451964
C  -5.6371957748  0.2874084210  0.7860800210
C  -5.7642283006  0.3727438048  2.1859750800
H  -4.7846653203  0.9054665211  4.0505200207
H  -6.4713753726  -0.0834353098  0.1829255497
H  -6.6973223265  0.0697341873  2.6703015225