5
charge=1, multiplicity=1, basis=def2-QZVPPD, AUX_BASIS_CORR=rimp2-def2-QZVPPD, SCF_ALGORITHM=GDM, xc_grid=000099000590, mem_total=3750, num_basis=195, num_pairs=19452, num_threads=1
N  -2.4326574126  1.5788891844  -0.3818101011
H  -2.4036108701  0.7817380124  0.2660750318
H  -3.2996600609  2.1075699605  -0.2584526309
H  -1.6064019207  2.1616052344  -0.1492263343
H  -2.3428539640  1.2409610372  -1.3578786391