3
charge=0, multiplicity=1, basis=def2-QZVPPD, AUX_BASIS_CORR=rimp2-def2-QZVPPD, SCF_ALGORITHM=GDM, xc_grid=000099000590, mem_total=3750, num_basis=132, num_pairs=9017, num_threads=1
O  1.3797004081  -0.8109270201  2.3552253499
H  1.9364925289  -0.5321349879  1.6104915383
H  2.0158441312  -1.0177274165  3.0520475845