7
charge=0, multiplicity=1, basis=def2-QZVPPD, AUX_BASIS_CORR=rimp2-def2-QZVPPD, SCF_ALGORITHM=GDM, xc_grid=000099000590, mem_total=3750, num_basis=327, num_pairs=49909, num_threads=1
O  2.8547783868  0.0000000000  -1.2712311930
H  2.4863347574  0.4353849561  -2.0612132880
H  3.7901137038  -0.1213500201  -1.4741578491
C  0.1142040921  1.3074109562  -2.8783541434
O  1.2604430690  1.2669946482  -3.3177177231
H  -0.7080955735  1.7530083348  -3.4733246749
H  -0.1369119831  0.9019844625  -1.8785233102