3
charge=0, multiplicity=1, basis=def2-QZVPPD, AUX_BASIS_CORR=rimp2-def2-QZVPPD, SCF_ALGORITHM=GDM, xc_grid=000099000590, mem_total=3750, num_basis=132, num_pairs=9017, num_threads=1
O  -3.3551768926  2.6170628960  2.4960012905
H  -2.7645973736  3.3688027519  2.3519874147
H  -4.1572367700  2.9908645340  2.8875990314