5
charge=0, multiplicity=1, basis=def2-QZVPPD, AUX_BASIS_CORR=rimp2-def2-QZVPPD, SCF_ALGORITHM=GDM, xc_grid=000099000590, mem_total=3750, num_basis=253, num_pairs=32387, num_threads=1
C  0.0000000000  0.0000000000  0.0000000000
I  0.0000000000  0.0000000000  2.1613000001
H  0.0000000000  1.0423605433  -0.3370530335
H  0.9070798649  -0.5202319509  -0.3282999180
H  -0.9019271235  -0.5330540660  -0.3201578938