5
charge=1, multiplicity=1, basis=def2-QZVPPD, AUX_BASIS_CORR=rimp2-def2-QZVPPD, SCF_ALGORITHM=GDM, xc_grid=000099000590, mem_total=3750, num_basis=195, num_pairs=19452, num_threads=1
N  -2.7212161573  0.0172406451  1.8876564589
H  -2.9483208429  1.0148851978  2.1162028275
H  -1.7699826955  -0.0460955766  1.4828448874
H  -2.7602886186  -0.5516027119  2.7371968231
H  -3.3964002466  -0.3463009762  1.2103165787