7
charge=0, multiplicity=1, basis=def2-QZVPPD, AUX_BASIS_CORR=rimp2-def2-QZVPPD, SCF_ALGORITHM=GDM, xc_grid=000099000590, mem_total=3750, num_basis=324, num_pairs=46567, num_threads=1
O  3.1204964844  0.1549328710  -1.3248488741
H  3.4649238829  -0.0197513614  -0.4394733967
H  2.2065165033  0.4408132156  -1.1657106811
C  2.2872913194  -3.1008850944  -4.2471571914
C  2.5646300194  -2.2120041274  -3.4380098315
H  2.0465519311  -3.8741791823  -4.9537550301
H  2.8156005332  -1.4343254985  -2.7274442497