5
charge=0, multiplicity=1, basis=def2-QZVPPD, AUX_BASIS_CORR=rimp2-def2-QZVPPD, SCF_ALGORITHM=GDM, xc_grid=000099000590, mem_total=3750, num_basis=340, num_pairs=56812, num_threads=1
C  -1.1773415628  -0.5350371800  -0.7312614893
F  -0.9200600910  -1.4100137023  -1.7199424821
Cl  -0.1058549025  -0.7846883808  0.6272566946
F  -2.4653488306  -0.6737339407  -0.3676141837
F  -1.0181661295  0.7150655576  -1.2294567342