4
charge=0, multiplicity=1, basis=def2-QZVPPD, AUX_BASIS_CORR=rimp2-def2-QZVPPD, SCF_ALGORITHM=GDM, xc_grid=000099000590, mem_total=3750, num_basis=195, num_pairs=19475, num_threads=1
C  3.0390542410  1.3623990917  1.1878660451
O  3.2050425812  1.0028148357  0.0228436064
H  2.4539499978  2.2704997622  1.4323736260
H  3.4777766046  0.7937426541  2.0303759583