13
charge=0, multiplicity=1, basis=def2-QZVPPD, AUX_BASIS_CORR=rimp2-def2-QZVPPD, SCF_ALGORITHM=GDM, xc_grid=000099000590, mem_total=7500, num_basis=642, num_pairs=191069, num_threads=2
C  0.0000000000  0.0000000000  0.0000000000
C  0.0000000000  0.0000000000  1.4089379364
C  0.0000000000  1.2157244521  -0.7100060371
C  -0.0014493241  2.4334133237  0.0001779674
C  -0.0089568064  1.2223205127  2.1050317679
C  -0.0091896206  2.4425344363  1.4046745084
H  -0.0036333417  1.2137660511  -1.8030177076
H  0.0020966872  3.3835627711  -0.5408048549
H  -0.0102821508  3.3779483205  1.9691133678
H  -0.0028191112  -0.9525443321  -0.5377216880
H  -0.0059528696  -0.9468383425  1.9601101047
O  -0.0129628726  1.2940479877  3.4827509887
H  -0.1077001669  0.3977066888  3.8376703449