15
charge=0, multiplicity=1, basis=def2-QZVPPD, AUX_BASIS_CORR=rimp2-def2-QZVPPD, SCF_ALGORITHM=GDM, xc_grid=000099000590, mem_total=7500, num_basis=708, num_pairs=218006, num_threads=2
C  -0.4349755102  0.2783783488  0.0268070998
H  -0.6229654517  0.4200820420  1.0939622787
C  -0.3362721802  1.3880341072  -0.8350593103
H  -0.4629368059  2.4001734952  -0.4396374974
C  -0.0610445092  1.1972731022  -2.2039053959
H  0.0241155521  2.0600490984  -2.8711592524
C  0.1098565079  -0.1061327335  -2.7122145811
H  0.3268058314  -0.2548407187  -3.7741273623
C  0.0052604802  -1.2169429064  -1.8509152787
H  0.1433720336  -2.2280978995  -2.2451920865
C  -0.2633437233  -1.0243383625  -0.4815397454
H  -0.3223418209  -1.8799199799  0.1965621426
O  1.3797004081  -0.8109270201  2.3552253499
H  1.9364925289  -0.5321349879  1.6104915383
H  2.0158441312  -1.0177274165  3.0520475845