13
charge=0, multiplicity=1, basis=def2-QZVPPD, AUX_BASIS_CORR=rimp2-def2-QZVPPD, SCF_ALGORITHM=GDM, xc_grid=000099000590, mem_total=7500, num_basis=642, num_pairs=191015, num_threads=2
C  -0.6936864964  -0.1028845447  0.2460051673
C  -0.4291489446  0.2050582433  1.5973108034
C  0.1270572068  1.4540788463  1.9378321461
C  0.3837516939  2.4040205325  0.9333688443
C  0.0949898559  2.1148299200  -0.4157389829
C  -0.4337796487  0.8539438449  -0.7521887452
O  -0.7037851252  -0.6687859533  2.6173524047
H  0.3353124424  1.6691450837  2.9899039621
H  0.8045684841  3.3762814682  1.2068995216
H  0.2907391377  2.8579742301  -1.1933986723
H  -0.6488426733  0.6111887371  -1.7974361165
H  -1.1115653383  -1.0800122718  -0.0130044818
H  -1.3781194031  -1.3041927609  2.2942626004