3
charge=0, multiplicity=1, basis=def2-QZVPPD, AUX_BASIS_CORR=rimp2-def2-QZVPPD, SCF_ALGORITHM=GDM, xc_grid=000099000590, mem_total=3750, num_basis=132, num_pairs=9017, num_threads=1
O  1.3554202736  2.8124800756  -1.1437785910
H  2.1082940336  2.2113762246  -0.9925492884
H  1.6290073608  3.3701157639  -1.8821718157