8
charge=0, multiplicity=1, basis=def2-QZVPPD, AUX_BASIS_CORR=rimp2-def2-QZVPPD, SCF_ALGORITHM=GDM, xc_grid=000099000590, mem_total=3750, num_basis=385, num_pairs=67602, num_threads=1
C  0.0000000000  0.0000000000  0.0000000000
I  0.0000000000  0.0000000000  2.1613000001
H  0.0000000000  1.0423605433  -0.3370530335
H  0.9070798649  -0.5202319509  -0.3282999180
H  -0.9019271235  -0.5330540660  -0.3201578938
O  1.3554202736  2.8124800756  -1.1437785910
H  2.1082940336  2.2113762246  -0.9925492884
H  1.6290073608  3.3701157639  -1.8821718157