3
charge=0, multiplicity=1, basis=def2-QZVPPD, AUX_BASIS_CORR=rimp2-def2-QZVPPD, SCF_ALGORITHM=GDM, xc_grid=000099000590, mem_total=3750, num_basis=132, num_pairs=9017, num_threads=1
O  -0.8941428043  -2.1234938896  3.5813613880
H  -0.3459936576  -2.8736561623  3.2617761131
H  -0.5190161890  -1.3375384708  3.1663989818