12
charge=0, multiplicity=1, basis=def2-QZVPPD, AUX_BASIS_CORR=rimp2-def2-QZVPPD, SCF_ALGORITHM=GDM, xc_grid=000099000590, mem_total=3750, num_basis=576, num_pairs=158334, num_threads=1
H  -2.4620584384  0.2017436225  3.6030938241
C  -1.3687060561  0.1747503458  3.6278195058
H  -1.2407188252  -1.7889092211  2.7049899209
C  -0.6813382852  -0.9467368353  3.1225894360
C  -0.6464861985  1.2640999115  4.1537345245
C  0.7269666815  -0.9779477820  3.1444680391
C  0.7614686901  1.2347338671  4.1769536284
H  1.2603414465  -1.8452535872  2.7444636226
C  1.4467372511  0.1126225489  3.6722278573
H  1.3198520201  2.0853347083  4.5746906554
H  2.5407461452  0.0943693349  3.6822465221
H  -1.1758522172  2.1413854740  4.5372495127