4
charge=0, multiplicity=1, basis=def2-QZVPPD, AUX_BASIS_CORR=rimp2-def2-QZVPPD, SCF_ALGORITHM=GDM, xc_grid=000099000590, mem_total=3750, num_basis=192, num_pairs=18756, num_threads=1
C  2.9757562175  0.1879443086  -0.5259437140
H  2.0661020896  0.2350706181  -1.1033722773
C  3.9936046615  0.1233258904  0.1673693702
H  4.9039542966  0.0794938935  0.7376733418