4
charge=0, multiplicity=1, basis=def2-QZVPPD, AUX_BASIS_CORR=rimp2-def2-QZVPPD, SCF_ALGORITHM=GDM, xc_grid=000099000590, mem_total=3750, num_basis=192, num_pairs=18756, num_threads=1
C  0.0842290338  1.4886709122  0.6158988909
H  0.1551400967  1.1667545522  1.6419618764
C  -0.0068696133  1.8394932420  -0.5625517231
H  -0.0811109863  2.1501569177  -1.5887368620