3
charge=0, multiplicity=1, basis=def2-QZVPPD, AUX_BASIS_CORR=rimp2-def2-QZVPPD, SCF_ALGORITHM=GDM, xc_grid=000099000590, mem_total=3750, num_basis=132, num_pairs=9017, num_threads=1
O  -1.2369793881  0.9126975252  2.5062249473
H  -1.7002905600  0.6984774004  1.6814943624
H  -0.2962968255  0.8077673140  2.2615622520