9
charge=0, multiplicity=1, basis=def2-QZVPPD, AUX_BASIS_CORR=rimp2-def2-QZVPPD, SCF_ALGORITHM=GDM, xc_grid=000099000590, mem_total=3750, num_basis=535, num_pairs=115299, num_threads=1
C  0.1142040921  1.3074109562  -2.8783541434
O  1.2604430690  1.2669946482  -3.3177177231
H  -0.7080955735  1.7530083348  -3.4733246749
H  -0.1369119831  0.9019844625  -1.8785233102
C  -0.9928889346  -0.3776795865  1.2630311552
F  -1.4072072735  -1.6340333189  1.5080828857
Cl  0.5971075999  -0.3700762335  0.5323414283
F  -0.9954502653  0.3009136857  2.4247579688
F  -1.8936336235  0.2044327716  0.4388606007