8
charge=1, multiplicity=1, basis=def2-QZVPPD, AUX_BASIS_CORR=rimp2-def2-QZVPPD, SCF_ALGORITHM=GDM, xc_grid=000099000590, mem_total=3750, num_basis=327, num_pairs=50905, num_threads=1
N  -2.7212161573  0.0172406451  1.8876564589
H  -2.9483208429  1.0148851978  2.1162028275
H  -1.7699826955  -0.0460955766  1.4828448874
H  -2.7602886186  -0.5516027119  2.7371968231
H  -3.3964002466  -0.3463009762  1.2103165787
O  -3.3551768926  2.6170628960  2.4960012905
H  -2.7645973736  3.3688027519  2.3519874147
H  -4.1572367700  2.9908645340  2.8875990314