12
charge=0, multiplicity=1, basis=def2-QZVPPD, AUX_BASIS_CORR=rimp2-def2-QZVPPD, SCF_ALGORITHM=GDM, xc_grid=000099000590, mem_total=3750, num_basis=576, num_pairs=158301, num_threads=1
C  4.3581155887  -0.4343040552  2.1943010672
C  5.1562400940  0.5111686213  2.8709665366
C  3.1663835305  -0.0330081166  1.5595167125
C  4.7600912847  1.8624928230  2.9122599232
C  2.7722898287  1.3196598190  1.5992921778
C  3.5678746840  2.2646777232  2.2756370438
H  2.5086779030  -0.7333781509  1.0330590320
H  1.8347618058  1.5886698838  1.1015819287
H  4.6661444272  -1.4851511806  2.1660532285
H  6.0815018416  0.1969165808  3.3665200320
H  5.3768114383  2.5975625479  3.4410737719
H  3.2576365456  3.3142862141  2.3133971529