3
charge=0, multiplicity=1, basis=def2-QZVPPD, AUX_BASIS_CORR=rimp2-def2-QZVPPD, SCF_ALGORITHM=GDM, xc_grid=000099000590, mem_total=3750, num_basis=132, num_pairs=9017, num_threads=1
O  0.0000000000  0.0000000000  -0.2219960000
H  -0.3750550000  -0.6496150000  0.3824610000
H  0.3750550000  0.6496150000  0.3824610000