15
charge=0, multiplicity=1, basis=def2-QZVPPD, AUX_BASIS_CORR=rimp2-def2-QZVPPD, SCF_ALGORITHM=GDM, xc_grid=000099000590, mem_total=7500, num_basis=708, num_pairs=232093, num_threads=2
O  0.0000000000  0.0000000000  -0.2219960000
C  1.3951850000  -0.0004890000  3.0507270000
C  0.6971740000  1.2075420000  3.0519840000
C  -0.6980160000  1.2080210000  3.0507270000
C  -1.3951850000  0.0004890000  3.0507270000
C  -0.6971740000  -1.2075420000  3.0519840000
C  0.6980160000  -1.2080210000  3.0507270000
H  2.4774320000  -0.0006030000  3.0493670000
H  1.2384820000  2.1451140000  3.0579670000
H  -1.2392390000  2.1452170000  3.0493670000
H  -2.4774320000  0.0006030000  3.0493670000
H  -1.2384820000  -2.1451140000  3.0579670000
H  1.2392390000  -2.1452170000  3.0493670000
H  -0.3750550000  -0.6496150000  0.3824610000
H  0.3750550000  0.6496150000  0.3824610000