4
charge=0, multiplicity=1, basis=def2-QZVPPD, AUX_BASIS_CORR=rimp2-def2-QZVPPD, SCF_ALGORITHM=GDM, xc_grid=000099000590, mem_total=3750, num_basis=293, num_pairs=42089, num_threads=1
As  0.1217526224  0.5074562690  0.0000000000
F  1.7611916115  -0.0731098613  0.0000000000
F  -0.3456099451  -0.5507670751  -1.2862303866
F  -0.3456099451  -0.5507670751  1.2862303866