8
charge=0, multiplicity=1, basis=def2-QZVPPD, AUX_BASIS_CORR=rimp2-def2-QZVPPD, SCF_ALGORITHM=GDM, xc_grid=000099000590, mem_total=3750, num_basis=455, num_pairs=93063, num_threads=1
N  -2.5482627171  0.6523382723  0.0000000000
As  0.1217526224  0.5074562690  0.0000000000
H  -2.8220823290  0.1130849518  0.8160220685
H  -3.1014369687  1.5033395665  0.0000000000
H  -2.8220823290  0.1130849518  -0.8160220685
F  1.7611916115  -0.0731098613  0.0000000000
F  -0.3456099451  -0.5507670751  -1.2862303866
F  -0.3456099451  -0.5507670751  1.2862303866