7
charge=0, multiplicity=1, basis=def2-QZVPPD, AUX_BASIS_CORR=rimp2-def2-QZVPPD, SCF_ALGORITHM=GDM, xc_grid=000099000590, mem_total=3750, num_basis=324, num_pairs=52490, num_threads=1
C  0.0000000000  0.4415670000  0.0000000000
H  -0.1607610000  1.5112650000  0.0000000000
O  -1.1907860000  -0.2186720000  0.0000000000
C  1.2119120000  -0.1003890000  0.0000000000
H  1.3662720000  -1.1722670000  0.0000000000
H  2.0846310000  0.5335700000  0.0000000000
H  -1.0353260000  -1.1702660000  0.0000000000