3
charge=0, multiplicity=1, basis=def2-QZVPPD, AUX_BASIS_CORR=rimp2-def2-QZVPPD, SCF_ALGORITHM=GDM, xc_grid=000099000590, mem_total=3750, num_basis=132, num_pairs=9017, num_threads=1
O  -0.7021960540  -0.0560602560  0.0099422620
H  -1.0221932240  0.8467757820  -0.0114887140
H  0.2575210620  0.0421214960  0.0052189990