3
charge=0, multiplicity=1, basis=def2-QZVPPD, AUX_BASIS_CORR=rimp2-def2-QZVPPD, SCF_ALGORITHM=GDM, xc_grid=000099000590, mem_total=3750, num_basis=132, num_pairs=9017, num_threads=1
O  -0.6874648960  -0.1117443270  -0.0196254720
H  -1.0461215440  0.7759382080  0.0127068450
H  0.2740425190  0.0258506540  -0.0034972620