6
charge=0, multiplicity=1, basis=def2-QZVPPD, AUX_BASIS_CORR=rimp2-def2-QZVPPD, SCF_ALGORITHM=GDM, xc_grid=000099000590, mem_total=3750, num_basis=261, num_pairs=34660, num_threads=1
O  -0.2087773900  -0.2168706720  -1.0324059660
H  0.7111259310  -0.3868917530  -0.7739623960
C  -1.0221733680  -0.7411711360  -0.0054541860
H  -2.0574911870  -0.5387073330  -0.2685972540
H  -0.9077433640  -1.8218263210  0.1085371040
H  -0.8246311070  -0.2754947190  0.9646454660