3
charge=0, multiplicity=1, basis=def2-QZVPPD, AUX_BASIS_CORR=rimp2-def2-QZVPPD, SCF_ALGORITHM=GDM, xc_grid=000099000590, mem_total=3750, num_basis=132, num_pairs=9017, num_threads=1
O  2.1288831410  -0.0513366040  -0.0047409350
H  2.5680872800  0.3368155950  -0.7646136170
H  2.5667674350  0.3512676750  0.7483485970