3
charge=0, multiplicity=1, basis=def2-QZVPPD, AUX_BASIS_CORR=rimp2-def2-QZVPPD, SCF_ALGORITHM=GDM, xc_grid=000099000590, mem_total=3750, num_basis=132, num_pairs=9017, num_threads=1
O  2.0932684130  0.9173113630  0.2120972510
H  1.2757510050  0.4210388750  0.0389443490
H  2.6751698620  0.6588134930  -0.5036488420