3
charge=0, multiplicity=1, basis=def2-QZVPPD, AUX_BASIS_CORR=rimp2-def2-QZVPPD, SCF_ALGORITHM=GDM, xc_grid=000099000590, mem_total=3750, num_basis=132, num_pairs=9017, num_threads=1
O  2.1027770710  -0.0584069740  -0.1550766860
H  2.6677543550  -0.7713655950  -0.4602760920
H  2.6825286890  0.7057865900  -0.1311781920