6
charge=0, multiplicity=1, basis=def2-QZVPPD, AUX_BASIS_CORR=rimp2-def2-QZVPPD, SCF_ALGORITHM=GDM, xc_grid=000099000590, mem_total=3750, num_basis=258, num_pairs=33789, num_threads=1
C  0.6557805990  -0.1167904790  3.5307517410
H  1.0472413750  -1.1239093070  3.5262834750
H  1.3708543830  0.6932734950  3.5262501530
C  -0.6557759200  0.1167921520  3.5307606320
H  -1.3708478670  -0.6932723660  3.5262645440
H  -1.0472390290  1.1239110500  3.5263024340