4
charge=0, multiplicity=1, basis=def2-QZVPPD, AUX_BASIS_CORR=rimp2-def2-QZVPPD, SCF_ALGORITHM=GDM, xc_grid=000099000590, mem_total=3750, num_basis=192, num_pairs=18798, num_threads=1
C  0.0058546610  0.0751501740  3.7794515480
H  0.0028455270  0.0575946260  2.7153760430
C  0.0095151080  0.0947310280  4.9918277210
H  0.0126275160  0.1119039560  6.0530247320