4
charge=0, multiplicity=1, basis=def2-QZVPPD, AUX_BASIS_CORR=rimp2-def2-QZVPPD, SCF_ALGORITHM=GDM, xc_grid=000099000590, mem_total=3750, num_basis=192, num_pairs=18798, num_threads=1
C  -0.6017299560  -0.0285701180  0.3849349160
H  -1.6637354300  -0.0285265660  0.3790143110
C  0.6101091740  -0.0286636440  0.3881637880
H  1.6721354440  -0.0287930820  0.3879675200