6
charge=0, multiplicity=1, basis=def2-QZVPPD, AUX_BASIS_CORR=rimp2-def2-QZVPPD, SCF_ALGORITHM=GDM, xc_grid=000099000590, mem_total=3750, num_basis=261, num_pairs=34660, num_threads=1
O  0.0470189520  0.3061853750  3.6851132770
H  0.1331191670  0.3560584660  2.7279197320
C  -0.8491316470  -0.7514286980  3.9681683160
H  -0.9448523410  -0.8081632820  5.0491044520
H  -1.8412812350  -0.5797309580  3.5443781120
H  -0.4826713290  -1.7144697670  3.6052568000