11
charge=0, multiplicity=1, basis=def2-QZVPPD, AUX_BASIS_CORR=rimp2-def2-QZVPPD, SCF_ALGORITHM=GDM, xc_grid=000099000590, mem_total=3750, num_basis=543, num_pairs=142245, num_threads=1
N  2.5332112850  -0.9500293010  0.0425178910
C  3.7349901010  -1.5432055370  0.0445977310
H  3.7297662490  -2.6261679900  0.0664868970
C  4.9409263380  -0.8482469790  0.0205963510
H  5.8773646640  -1.3877821570  0.0236903590
C  4.9086087300  0.5420574780  -0.0071503590
H  5.8239836670  1.1173085290  -0.0263318690
C  3.6689283990  1.1723436090  -0.0096274650
H  3.5891556680  2.2499021870  -0.0307160290
C  2.5150148280  0.3923339880  0.0155662030
H  1.5351044280  0.8559965700  0.0139033580