3
charge=0, multiplicity=1, basis=def2-QZVPPD, AUX_BASIS_CORR=rimp2-def2-QZVPPD, SCF_ALGORITHM=GDM, xc_grid=000099000590, mem_total=3750, num_basis=132, num_pairs=9017, num_threads=1
O  2.2639046020  -0.1455700550  -0.1154708150
H  2.8342610170  -0.7353394360  0.3815561110
H  2.8359004440  0.2054179670  -0.8008429690