6
charge=0, multiplicity=1, basis=def2-QZVPPD, AUX_BASIS_CORR=rimp2-def2-QZVPPD, SCF_ALGORITHM=GDM, xc_grid=000099000590, mem_total=3750, num_basis=264, num_pairs=33337, num_threads=1
O  -1.6289300000  -0.0413800000  0.3713700000
H  -0.6980300000  -0.0916800000  0.0933700000
H  -2.0666300000  -0.7349800000  -0.1366300000
O  1.2145700000  0.0317200000  -0.2762300000
H  1.4492700000  0.9167200000  -0.5857300000
H  1.7297700000  -0.0803800000  0.5338700000