12
charge=0, multiplicity=1, basis=def2-QZVPPD, AUX_BASIS_CORR=rimp2-def2-QZVPPD, SCF_ALGORITHM=GDM, xc_grid=000099000590, mem_total=3750, num_basis=528, num_pairs=123496, num_threads=1
O  -1.3201900000  -1.3803400000  -0.3587400000
H  -1.7383900000  -1.5949400000  -1.2015400000
H  -1.4833900000  -0.4168400000  -0.2352400000
O  1.4052100000  -1.3419400000  -0.0033400000
H  0.4476100000  -1.4807400000  -0.1880400000
H  1.6171100000  -1.9790400000  0.6898600000
O  1.3090100000  1.3705600000  0.4306600000
H  1.4672100000  0.4026600000  0.3385600000
H  1.9509100000  1.7823600000  -0.1607400000
O  -1.3939900000  1.3519600000  -0.0686400000
H  -0.4315900000  1.4949600000  0.0850600000
H  -1.8294900000  1.7913600000  0.6721600000