12
charge=0, multiplicity=1, basis=def2-QZVPPD, AUX_BASIS_CORR=rimp2-def2-QZVPPD, SCF_ALGORITHM=GDM, xc_grid=000099000590, mem_total=3750, num_basis=528, num_pairs=123082, num_threads=1
O  1.3986800000  -1.3477400000  -0.1206700000
H  1.6557800000  -2.0144400000  0.5278300000
H  0.4371700000  -1.4949400000  -0.2716700000
O  1.3191800000  1.3100600000  0.5766300000
H  1.4761800000  0.3655600000  0.3449300000
H  1.9954800000  1.8006600000  0.0942300000
O  -1.3987200000  1.3479600000  0.1200300000
H  -0.4372200000  1.4951600000  0.2714300000
H  -1.6553200000  2.0141600000  -0.5290700000
O  -1.3194200000  -1.3101400000  -0.5760700000
H  -1.4763200000  -0.3656400000  -0.3446700000
H  -1.9954200000  -1.8006400000  -0.0929700000