15
charge=0, multiplicity=1, basis=def2-QZVPPD, AUX_BASIS_CORR=rimp2-def2-QZVPPD, SCF_ALGORITHM=GDM, xc_grid=000099000590, mem_total=7500, num_basis=660, num_pairs=184282, num_threads=2
O  1.5614500000  -1.7429400000  -0.5907700000
H  0.5939500000  -1.9124400000  -0.5795700000
H  1.7652500000  -1.5883400000  -1.5218700000
O  -1.2146500000  -1.9627400000  -0.3976700000
H  -1.4334500000  -1.1040400000  0.0199300000
H  -1.5254500000  -2.6257400000  0.2316300000
O  -1.3274500000  0.5679600000  0.8424300000
H  -1.8073500000  0.7969600000  1.6479300000
H  -0.3650500000  0.5326600000  1.0961300000
O  1.3429500000  0.5805600000  0.9716300000
H  1.3273500000  1.2668600000  0.2805300000
H  1.5842500000  -0.2352400000  0.4816300000
O  0.1267500000  2.2959600000  -1.0230700000
H  0.0122500000  3.2431600000  -0.8746700000
H  -0.6407500000  1.8873600000  -0.5842700000