16
charge=0, multiplicity=1, basis=def2-QZVPPD, AUX_BASIS_CORR=rimp2-def2-QZVPPD, SCF_ALGORITHM=GDM, xc_grid=000099000590, mem_total=7500, num_basis=768, num_pairs=276820, num_threads=2
C  -0.4201680000  0.6579340000  0.7900020000
C  -0.4201680000  0.6579340000  -0.7900020000
C  0.4201680000  -0.6579340000  0.7900020000
C  0.4201680000  -0.6579340000  -0.7900020000
C  0.4201680000  1.9093270000  0.6677910000
C  0.4201680000  1.9093270000  -0.6677910000
C  -0.4201680000  -1.9093270000  0.6677910000
C  -0.4201680000  -1.9093270000  -0.6677910000
H  -0.9147770000  -2.5196320000  1.4126970000
H  -0.9147770000  -2.5196320000  -1.4126970000
H  1.3265500000  -0.6792740000  -1.3919390000
H  1.3265500000  -0.6792740000  1.3919390000
H  -1.3265500000  0.6792740000  1.3919390000
H  -1.3265500000  0.6792740000  -1.3919390000
H  0.9147770000  2.5196320000  -1.4126970000
H  0.9147770000  2.5196320000  1.4126970000