5
charge=0, multiplicity=1, basis=def2-QZVPPD, AUX_BASIS_CORR=rimp2-def2-QZVPPD, SCF_ALGORITHM=GDM, xc_grid=000099000590, mem_total=3750, num_basis=290, num_pairs=41389, num_threads=1
C  0.3917790000  -1.9660180000  0.0000000000
H  1.4529870000  -1.7269810000  0.0000000000
H  0.0939060000  -3.0133300000  0.0000000000
N  -0.5567950000  -1.1337520000  0.0000000000
Br  0.0000000000  0.6992200000  0.0000000000