4
charge=0, multiplicity=2, basis=def2-QZVPPD, AUX_BASIS_CORR=rimp2-def2-QZVPPD, SCF_ALGORITHM=GDM, xc_grid=000099000590, mem_total=3750, num_basis=192, num_pairs=18890, num_threads=1
C  0.0000000000  0.0000000000  -0.5012070000
H  0.0000000000  0.9352050000  -1.0749280000
H  0.0000000000  -0.9352050000  -1.0749280000
N  0.0000000000  0.0000000000  0.7367280000