9
charge=0, multiplicity=1, basis=def2-QZVPPD, AUX_BASIS_CORR=rimp2-def2-QZVPPD, SCF_ALGORITHM=GDM, xc_grid=000099000590, mem_total=3750, num_basis=450, num_pairs=96937, num_threads=1
C  1.4626550000  0.6773500000  0.0000000000
C  0.2802590000  1.6066780000  0.0000000000
C  0.0000000000  0.3414000000  0.0000000000
H  2.0393700000  0.5515080000  0.9118750000
H  -0.0478510000  2.6304070000  0.0000000000
C  -1.0211910000  -0.6916080000  0.0000000000
H  -2.0590130000  -0.3100900000  0.0000000000
O  -0.7877770000  -1.8782820000  0.0000000000
H  2.0393700000  0.5515080000  -0.9118750000