6
charge=0, multiplicity=1, basis=def2-QZVPPD, AUX_BASIS_CORR=rimp2-def2-QZVPPD, SCF_ALGORITHM=GDM, xc_grid=000099000590, mem_total=3750, num_basis=304, num_pairs=46069, num_threads=1
C  0.0000000000  0.7678490000  0.0000000000
H  -0.8229010000  1.4869890000  0.0000000000
H  1.3678000000  2.0706120000  0.0000000000
H  0.6024690000  -1.4648380000  0.0000000000
N  1.2287280000  1.0619690000  0.0000000000
S  -0.6092790000  -0.8833520000  0.0000000000