16
charge=0, multiplicity=1, basis=def2-QZVPPD, AUX_BASIS_CORR=rimp2-def2-QZVPPD, SCF_ALGORITHM=GDM, xc_grid=000099000590, mem_total=7500, num_basis=768, num_pairs=228703, num_threads=2
C  0.0000000000  0.0000000000  -0.7277510000
C  0.0000000000  0.0000000000  -2.0473260000
C  0.0000000000  1.2818110000  -2.8360060000
C  0.0000000000  -1.2818110000  -2.8360060000
H  0.0000000000  -2.1554430000  -2.1893430000
H  0.8779460000  -1.3271460000  -3.4870620000
H  -0.8779460000  -1.3271460000  -3.4870620000
H  0.0000000000  2.1554430000  -2.1893430000
H  0.8779460000  1.3271460000  -3.4870620000
H  -0.8779460000  1.3271460000  -3.4870620000
C  0.0000000000  0.0000000000  0.5361780000
C  0.0000000000  0.0000000000  1.8223680000
C  0.0000000000  0.0000000000  3.0871640000
C  0.0000000000  0.0000000000  4.4007280000
H  0.0000000000  -0.9248950000  4.9654170000
H  0.0000000000  0.9248950000  4.9654170000