7
charge=0, multiplicity=2, basis=def2-QZVPPD, AUX_BASIS_CORR=rimp2-def2-QZVPPD, SCF_ALGORITHM=GDM, xc_grid=000099000590, mem_total=3750, num_basis=321, num_pairs=51791, num_threads=1
C  0.0000000000  0.4809420000  0.0000000000
H  -0.5474590000  1.4354500000  0.0000000000
N  1.2414350000  0.5153940000  0.0000000000
C  -0.8323470000  -0.7794290000  0.0000000000
H  -0.1972750000  -1.6616470000  0.0000000000
H  -1.4756120000  -0.7953180000  0.8811440000
H  -1.4756120000  -0.7953180000  -0.8811440000