7
charge=0, multiplicity=1, basis=def2-QZVPPD, AUX_BASIS_CORR=rimp2-def2-QZVPPD, SCF_ALGORITHM=GDM, xc_grid=000099000590, mem_total=3750, num_basis=337, num_pairs=56425, num_threads=1
C  0.0000000000  0.7590380000  0.0000000000
H  -0.7811740000  1.5097170000  0.0000000000
C  1.2803820000  1.1126610000  0.0000000000
H  2.0845150000  0.3888500000  0.0000000000
H  1.5556700000  2.1579950000  0.0000000000
H  0.4685510000  -1.5417480000  0.0000000000
S  -0.6881160000  -0.8590630000  0.0000000000