5
charge=0, multiplicity=1, basis=def2-QZVPPD, AUX_BASIS_CORR=rimp2-def2-QZVPPD, SCF_ALGORITHM=GDM, xc_grid=000099000590, mem_total=3750, num_basis=261, num_pairs=34577, num_threads=1
C  0.0000000000  0.4210350000  0.0000000000
H  -0.3830630000  1.4480420000  0.0000000000
H  -0.6595560000  -1.3436440000  0.0000000000
O  1.1585180000  0.1170880000  0.0000000000
O  -1.0281910000  -0.4459140000  0.0000000000