3
charge=0, multiplicity=1, basis=def2-QZVPPD, AUX_BASIS_CORR=rimp2-def2-QZVPPD, SCF_ALGORITHM=GDM, xc_grid=000099000590, mem_total=3750, num_basis=159, num_pairs=13024, num_threads=1
C  0.0000000000  0.0000000000  -0.5003650992
N  0.0000000000  0.0000000000  0.6526395459
H  0.0000000000  0.0000000000  -1.5662904592