16
charge=0, multiplicity=1, basis=def2-QZVPPD, AUX_BASIS_CORR=rimp2-def2-QZVPPD, SCF_ALGORITHM=GDM, xc_grid=000099000590, mem_total=7500, num_basis=768, num_pairs=279906, num_threads=2
C  -0.6512180000  -1.3101720000  0.7371000000
C  0.6512180000  -1.1758140000  0.0000000000
C  1.3304100000  0.1907930000  0.0000000000
C  0.6512180000  1.3101720000  0.7371000000
C  -0.6512180000  1.1758140000  0.0000000000
C  -1.3304100000  -0.1907930000  0.0000000000
C  -0.6512180000  -1.3101720000  -0.7371000000
C  0.6512180000  1.3101720000  -0.7371000000
H  1.3102550000  -2.0364820000  0.0000000000
H  2.4144170000  0.1853310000  0.0000000000
H  -1.3102550000  2.0364820000  0.0000000000
H  -2.4144170000  -0.1853310000  0.0000000000
H  -1.0084710000  -2.0289220000  -1.4547380000
H  -1.0084710000  -2.0289220000  1.4547380000
H  1.0084710000  2.0289220000  1.4547380000
H  1.0084710000  2.0289220000  -1.4547380000