7
charge=0, multiplicity=1, basis=def2-QZVPPD, AUX_BASIS_CORR=rimp2-def2-QZVPPD, SCF_ALGORITHM=GDM, xc_grid=000099000590, mem_total=3750, num_basis=324, num_pairs=52717, num_threads=1
C  0.0000000000  0.4594290000  0.0000000000
H  -0.4963700000  1.4522810000  0.0000000000
O  1.2023080000  0.3853950000  0.0000000000
C  -0.9303150000  -0.7176850000  0.0000000000
H  -0.3764750000  -1.6534570000  0.0000000000
H  -1.5818660000  -0.6662260000  0.8763620000
H  -1.5818660000  -0.6662260000  -0.8763620000