7
charge=0, multiplicity=1, basis=def2-QZVPPD, AUX_BASIS_CORR=rimp2-def2-QZVPPD, SCF_ALGORITHM=GDM, xc_grid=000099000590, mem_total=3750, num_basis=387, num_pairs=71551, num_threads=1
C  1.0936230000  0.2877510000  0.0000000000
N  0.0000000000  0.7909000000  0.0000000000
C  -1.3354920000  0.3082920000  0.0000000000
H  -1.8517620000  0.6539570000  0.8955190000
F  -1.3804180000  -1.0795910000  0.0000000000
H  -1.8517620000  0.6539570000  -0.8955190000
O  2.1973130000  -0.0880190000  0.0000000000