16
charge=0, multiplicity=1, basis=def2-QZVPPD, AUX_BASIS_CORR=rimp2-def2-QZVPPD, SCF_ALGORITHM=GDM, xc_grid=000099000590, mem_total=7500, num_basis=768, num_pairs=247261, num_threads=2
C  -0.2821650000  3.4579920000  0.0583730000
C  0.5391880000  2.4085550000  -0.0718350000
C  0.1538270000  1.0226770000  -0.0285440000
C  -0.9769630000  0.3008900000  -0.1019800000
C  -0.1538270000  -1.0226770000  0.0285440000
C  0.9769630000  -0.3008900000  0.1019800000
H  -1.3426220000  3.3346920000  0.2369530000
H  0.0902410000  4.4703820000  -0.0053940000
H  1.5985570000  2.5963640000  -0.2147230000
H  2.0219760000  -0.5312170000  0.2453910000
C  -0.5391880000  -2.4085550000  0.0718350000
H  -1.5985570000  -2.5963640000  0.2147230000
C  0.2821650000  -3.4579920000  -0.0583730000
H  1.3426220000  -3.3346920000  -0.2369530000
H  -0.0902410000  -4.4703820000  0.0053940000
H  -2.0219760000  0.5312170000  -0.2453910000