12
charge=0, multiplicity=1, basis=def2-QZVPPD, AUX_BASIS_CORR=rimp2-def2-QZVPPD, SCF_ALGORITHM=GDM, xc_grid=000099000590, mem_total=3750, num_basis=579, num_pairs=161666, num_threads=1
C  0.0000000000  0.0000000000  0.8550640000
C  0.0000000000  1.2411760000  -0.0431090000
C  0.0000000000  0.6656980000  -1.4295460000
C  0.0000000000  -0.6656980000  -1.4295460000
C  0.0000000000  -1.2411760000  -0.0431090000
H  0.8750880000  1.8580540000  0.1788430000
H  -0.8750880000  1.8580540000  0.1788430000
H  0.0000000000  1.2802190000  -2.3183350000
H  0.0000000000  -1.2802190000  -2.3183350000
H  0.8750880000  -1.8580540000  0.1788430000
H  -0.8750880000  -1.8580540000  0.1788430000
O  0.0000000000  0.0000000000  2.0578480000