14
charge=0, multiplicity=1, basis=def2-QZVPPD, AUX_BASIS_CORR=rimp2-def2-QZVPPD, SCF_ALGORITHM=GDM, xc_grid=000099000590, mem_total=7500, num_basis=642, num_pairs=193777, num_threads=2
C  1.1368100000  -0.2982010000  0.0000000000
C  0.0000000000  0.6917340000  0.0000000000
C  0.4477190000  -1.6328530000  0.0000000000
C  -1.1564760000  0.0039540000  0.0000000000
C  -0.8798190000  -1.4341040000  0.0000000000
H  1.7834950000  -0.1688170000  0.8749340000
H  1.7834950000  -0.1688170000  -0.8749340000
H  0.9626920000  -2.5804860000  0.0000000000
H  -2.1459750000  0.4384280000  0.0000000000
H  -1.6387840000  -2.2025720000  0.0000000000
C  0.1987800000  2.1685820000  0.0000000000
H  0.7640680000  2.4963350000  -0.8768900000
H  -0.7551440000  2.6949230000  0.0000000000
H  0.7640680000  2.4963350000  0.8768900000