16
charge=0, multiplicity=1, basis=def2-QZVPPD, AUX_BASIS_CORR=rimp2-def2-QZVPPD, SCF_ALGORITHM=GDM, xc_grid=000099000590, mem_total=7500, num_basis=768, num_pairs=259847, num_threads=2
C  -0.1557120000  2.4522610000  0.0000000000
C  0.0000000000  0.9703390000  0.0000000000
C  -0.9613340000  -0.1320990000  0.0000000000
C  0.0514040000  -1.0815630000  0.0000000000
C  1.0784810000  0.0961800000  0.0000000000
C  2.0878830000  -0.8615770000  0.0000000000
C  1.1375440000  -1.9513200000  0.0000000000
C  -2.4506810000  -0.1791820000  0.0000000000
H  0.8160330000  2.9433540000  0.0000000000
H  -0.7113080000  2.7917390000  0.8786300000
H  -0.7113080000  2.7917390000  -0.8786300000
H  3.1710140000  -0.8165200000  0.0000000000
H  1.2402390000  -3.0305110000  0.0000000000
H  -2.8624580000  0.3252830000  -0.8785710000
H  -2.8624580000  0.3252830000  0.8785710000
H  -2.8052710000  -1.2086010000  0.0000000000