9
charge=0, multiplicity=1, basis=def2-QZVPPD, AUX_BASIS_CORR=rimp2-def2-QZVPPD, SCF_ALGORITHM=GDM, xc_grid=000099000590, mem_total=3750, num_basis=387, num_pairs=73913, num_threads=1
C  0.0000000000  0.4717080000  0.0000000000
H  -0.2764120000  1.5223110000  0.0000000000
C  -1.1343290000  -0.5044290000  0.0000000000
H  -0.7767000000  -1.5341900000  0.0000000000
H  -1.7724700000  -0.3638240000  0.8763360000
H  -1.7724700000  -0.3638240000  -0.8763360000
C  1.2879470000  0.1514660000  0.0000000000
H  2.0605050000  0.9085670000  0.0000000000
H  1.6158390000  -0.8815160000  0.0000000000