17
charge=0, multiplicity=1, basis=def2-QZVPPD, AUX_BASIS_CORR=rimp2-def2-QZVPPD, SCF_ALGORITHM=GDM, xc_grid=000099000590, mem_total=7500, num_basis=771, num_pairs=266898, num_threads=2
C  -0.5716710000  -1.0319110000  0.0000000000
C  0.6569450000  -1.9023970000  0.0000000000
C  1.7800620000  -1.1936670000  0.0000000000
C  1.5206960000  0.2888060000  0.0000000000
C  0.0000000000  0.3793820000  0.0000000000
C  -0.6954550000  1.5101190000  0.0000000000
C  -2.1883200000  1.6223360000  0.0000000000
H  -1.2035980000  -1.2205310000  0.8742040000
H  0.6046110000  -2.9822650000  0.0000000000
H  2.7770830000  -1.6116790000  0.0000000000
H  1.9593850000  0.7786750000  -0.8751060000
H  1.9593850000  0.7786750000  0.8751060000
H  -1.2035980000  -1.2205310000  -0.8742040000
H  -0.1493200000  2.4491910000  0.0000000000
H  -2.5421830000  2.1725160000  0.8762440000
H  -2.6731260000  0.6474250000  0.0000000000
H  -2.5421830000  2.1725160000  -0.8762440000