16
charge=0, multiplicity=1, basis=def2-QZVPPD, AUX_BASIS_CORR=rimp2-def2-QZVPPD, SCF_ALGORITHM=GDM, xc_grid=000099000590, mem_total=7500, num_basis=768, num_pairs=255902, num_threads=2
C  0.0000000000  1.3861530000  1.2627530000
C  0.0000000000  1.3927310000  -0.1921660000
C  0.0000000000  0.0000000000  -0.2432270000
C  0.0000000000  0.0000000000  1.3164130000
C  0.0000000000  -1.3861530000  1.2627530000
C  0.0000000000  -1.3927310000  -0.1921660000
C  0.0000000000  2.4832800000  -1.2075400000
H  -0.8786190000  3.1239190000  -1.0962340000
H  0.0000000000  2.0743820000  -2.2165450000
H  0.8786190000  3.1239190000  -1.0962340000
H  0.0000000000  2.1711190000  2.0111770000
C  0.0000000000  -2.4832800000  -1.2075400000
H  0.0000000000  -2.0743820000  -2.2165450000
H  0.8786190000  -3.1239190000  -1.0962340000
H  -0.8786190000  -3.1239190000  -1.0962340000
H  0.0000000000  -2.1711190000  2.0111770000