17
charge=0, multiplicity=1, basis=def2-QZVPPD, AUX_BASIS_CORR=rimp2-def2-QZVPPD, SCF_ALGORITHM=GDM, xc_grid=000099000590, mem_total=7500, num_basis=771, num_pairs=265439, num_threads=2
C  0.0000000000  1.1904740000  0.0264730000
C  0.0000000000  0.7321340000  -1.2374760000
C  0.0000000000  -0.7321340000  -1.2374760000
C  0.0000000000  -1.1904740000  0.0264730000
C  0.0000000000  0.0000000000  0.9524370000
C  0.0000000000  2.6021820000  0.5029700000
C  0.0000000000  -2.6021820000  0.5029700000
H  0.0000000000  1.3454160000  -2.1275600000
H  0.0000000000  -1.3454160000  -2.1275600000
H  -0.8750550000  0.0000000000  1.6119080000
H  0.8750550000  0.0000000000  1.6119080000
H  -0.8768770000  2.8178960000  1.1202350000
H  0.0000000000  3.3000090000  -0.3339230000
H  0.8768770000  2.8178960000  1.1202350000
H  0.0000000000  -3.3000090000  -0.3339230000
H  -0.8768770000  -2.8178960000  1.1202350000
H  0.8768770000  -2.8178960000  1.1202350000