3
charge=0, multiplicity=2, basis=def2-QZVPPD, AUX_BASIS_CORR=rimp2-def2-QZVPPD, SCF_ALGORITHM=GDM, xc_grid=000099000590, mem_total=3750, num_basis=159, num_pairs=13029, num_threads=1
N  0.0845630475  -0.6429344358  0.0000000000
N  0.0845630475  0.4798769451  0.0000000000
H  -1.1838858395  1.1413982013  0.0000000000