7
charge=0, multiplicity=1, basis=def2-QZVPPD, AUX_BASIS_CORR=rimp2-def2-QZVPPD, SCF_ALGORITHM=GDM, xc_grid=000099000590, mem_total=3750, num_basis=324, num_pairs=52717, num_threads=1
C  0.0000000000  0.4594250000  0.0000000000
H  -0.4963830000  1.4522700000  0.0000000000
O  1.2023080000  0.3854120000  0.0000000000
C  -0.9302930000  -0.7177090000  0.0000000000
H  -0.3764280000  -1.6534670000  0.0000000000
H  -1.5819480000  -0.6661980000  0.8762840000
H  -1.5819480000  -0.6661980000  -0.8762840000