10
charge=0, multiplicity=1, basis=def2-QZVPPD, AUX_BASIS_CORR=rimp2-def2-QZVPPD, SCF_ALGORITHM=GDM, xc_grid=000099000590, mem_total=3750, num_basis=611, num_pairs=172117, num_threads=1
Br  0.0000000000  0.0000000000  1.6333980000
C  0.0000000000  1.1563490000  -0.9695670000
N  0.0000000000  0.0000000000  -0.1856280000
O  0.0000000000  2.2845980000  -0.5725970000
O  0.0000000000  -2.2845980000  -0.5725970000
C  0.0000000000  -1.1563490000  -0.9695670000
C  0.0000000000  -0.6619240000  -2.3863210000
C  0.0000000000  0.6619240000  -2.3863210000
H  0.0000000000  1.3482480000  -3.2186690000
H  0.0000000000  -1.3482480000  -3.2186690000