5
charge=0, multiplicity=1, basis=def2-QZVPPD, AUX_BASIS_CORR=rimp2-def2-QZVPPD, SCF_ALGORITHM=GDM, xc_grid=000099000590, mem_total=3750, num_basis=261, num_pairs=34577, num_threads=1
C  0.0000000000  0.4210500000  0.0000000000
H  -0.3830970000  1.4480390000  0.0000000000
O  1.1585460000  0.1172000000  0.0000000000
O  -1.0282070000  -0.4460330000  0.0000000000
H  -0.6596160000  -1.3436710000  0.0000000000