16
charge=0, multiplicity=1, basis=def2-QZVPPD, AUX_BASIS_CORR=rimp2-def2-QZVPPD, SCF_ALGORITHM=GDM, xc_grid=000099000590, mem_total=7500, num_basis=708, num_pairs=208273, num_threads=2
C  0.0068770000  0.7244530000  0.0000000000
C  -0.0068770000  -0.7244530000  0.0000000000
C  -1.0857730000  1.4927970000  0.0000000000
C  1.0857730000  -1.4927970000  0.0000000000
C  -1.0857730000  2.9862760000  0.0000000000
C  1.0857730000  -2.9862760000  0.0000000000
H  0.9843050000  1.2000010000  0.0000000000
H  -0.9843050000  -1.2000010000  0.0000000000
H  -2.0587370000  1.0089900000  0.0000000000
H  2.0587370000  -1.0089900000  0.0000000000
H  -1.6068880000  3.3826460000  0.8759870000
H  -1.6068880000  3.3826460000  -0.8759870000
H  -0.0714050000  3.3853230000  0.0000000000
H  1.6068880000  -3.3826460000  -0.8759870000
H  1.6068880000  -3.3826460000  0.8759870000
H  0.0714050000  -3.3853230000  0.0000000000