5
charge=0, multiplicity=1, basis=def2-QZVPPD, AUX_BASIS_CORR=rimp2-def2-QZVPPD, SCF_ALGORITHM=GDM, xc_grid=000099000590, mem_total=3750, num_basis=228, num_pairs=26522, num_threads=1
F  0.0000000000  0.0000000000  0.7507480000
C  0.0000000000  0.0000000000  -0.6335550000
H  0.0000000000  1.0313900000  -0.9851350000
H  -0.8932100000  -0.5156950000  -0.9851350000
H  0.8932100000  -0.5156950000  -0.9851350000