6
charge=0, multiplicity=1, basis=def2-QZVPPD, AUX_BASIS_CORR=rimp2-def2-QZVPPD, SCF_ALGORITHM=GDM, xc_grid=000099000590, mem_total=3750, num_basis=261, num_pairs=34660, num_threads=1
O  0.2259351730  1.0710633820  0.0000000000
H  1.1832727090  1.0525688310  0.0000000000
C  -0.2425753140  -0.2706285860  0.0000000000
H  -1.3291602740  -0.2221356480  0.0000000000
H  0.0812638530  -0.8154344890  -0.8909840260
H  0.0812638530  -0.8154344890  0.8909840260