4
charge=0, multiplicity=1, basis=def2-QZVPPD, AUX_BASIS_CORR=rimp2-def2-QZVPPD, SCF_ALGORITHM=GDM, xc_grid=000099000590, mem_total=3750, num_basis=195, num_pairs=19475, num_threads=1
O  0.0000000000  0.0000000000  0.6715990000
C  0.0000000000  0.0000000000  -0.5261420000
H  0.0000000000  0.9389690000  -1.1079710000
H  0.0000000000  -0.9389690000  -1.1079710000