5
charge=0, multiplicity=1, basis=def2-QZVPPD, AUX_BASIS_CORR=rimp2-def2-QZVPPD, SCF_ALGORITHM=GDM, xc_grid=000099000590, mem_total=3750, num_basis=241, num_pairs=29510, num_threads=1
O  0.0000000000  0.0000000000  -1.0999080000
P  0.0000000000  0.0000000000  0.3831000000
H  0.0000000000  1.2618530000  1.0175860000
H  1.0927970000  -0.6309270000  1.0175860000
H  -1.0927970000  -0.6309270000  1.0175860000