3
charge=0, multiplicity=1, basis=def2-QZVPPD, AUX_BASIS_CORR=rimp2-def2-QZVPPD, SCF_ALGORITHM=GDM, xc_grid=000099000590, mem_total=3750, num_basis=172, num_pairs=15161, num_threads=1
P  0.0000000000  0.0000000000  0.5341990000
C  0.0000000000  0.0000000000  -0.9915770000
H  0.0000000000  0.0000000000  -2.0635260000