4
charge=0, multiplicity=2, basis=def2-QZVPPD, AUX_BASIS_CORR=rimp2-def2-QZVPPD, SCF_ALGORITHM=GDM, xc_grid=000099000590, mem_total=3750, num_basis=178, num_pairs=16194, num_threads=1
H  1.2620982313  -0.2200969730  0.0000000000
S  0.0000000000  0.2231529714  0.0000000000
H  -0.5005762409  -1.1154473509  0.0000000000
H  -0.7615230487  -2.2349164485  0.0000000000