20
charge=0, multiplicity=1, basis=def2-QZVPPD, AUX_BASIS_CORR=rimp2-def2-QZVPPD, SCF_ALGORITHM=GDM, xc_grid=000099000590, mem_total=15000, num_basis=840, num_pairs=309632, num_threads=4
C  0.0337810002  2.5131650026  0.6831138009
C  0.6989810009  1.8282410015  -0.5052442005
C  0.6989810009  0.3051380002  -0.4008312003
C  -0.6989810009  -0.3051380002  -0.4008312003
C  -0.6989810009  -1.8282410015  -0.5052442005
C  -0.0337810002  -2.5131650026  0.6831138009
H  0.5003810006  2.1997520022  1.6177258016
H  -1.0258320009  2.2715780023  0.7434618009
H  0.1210520003  3.5963380035  0.6136058004
H  1.7288870015  2.1791560019  -0.5903702008
H  0.1940770002  2.1234590021  -1.4281792014
H  1.2330580011  0.0144179998  0.5068208007
H  1.2616840015  -0.1131010000  -1.2401032014
H  -1.2616840015  0.1131010000  -1.2401032014
H  -1.2330580011  -0.0144179998  0.5068208007
H  -0.1940770002  -2.1234590021  -1.4281792014
H  -1.7288870015  -2.1791560019  -0.5903702008
H  -0.1210520003  -3.5963380035  0.6136058004
H  -0.5003810006  -2.1997520022  1.6177258016
H  1.0258320009  -2.2715780023  0.7434618009