20
charge=0, multiplicity=1, basis=def2-QZVPPD, AUX_BASIS_CORR=rimp2-def2-QZVPPD, SCF_ALGORITHM=GDM, xc_grid=000099000590, mem_total=15000, num_basis=840, num_pairs=296548, num_threads=4
C  1.4151800013  2.8692870029  0.0000000000
C  1.4151800013  1.3461680013  0.0000000000
C  0.0089310001  0.7612640005  0.0000000000
C  -0.0089310001  -0.7612640005  0.0000000000
C  -1.4151800013  -1.3461680013  0.0000000000
C  -1.4151800013  -2.8692870029  0.0000000000
H  0.9009160007  3.2558660034  0.8796630009
H  0.9009160007  3.2558660034  -0.8796630009
H  2.4266240025  3.2724930034  0.0000000000
H  1.9559080022  0.9773160009  0.8744660009
H  1.9559080022  0.9773160009  -0.8744660009
H  -0.5341970006  1.1292360014  -0.8752730010
H  -0.5341970006  1.1292360014  0.8752730010
H  0.5341970006  -1.1292360014  0.8752730010
H  0.5341970006  -1.1292360014  -0.8752730010
H  -1.9559080022  -0.9773160009  -0.8744660009
H  -1.9559080022  -0.9773160009  0.8744660009
H  -2.4266240025  -3.2724930034  0.0000000000
H  -0.9009160007  -3.2558660034  0.8796630009
H  -0.9009160007  -3.2558660034  -0.8796630009