20
charge=0, multiplicity=1, basis=def2-QZVPPD, AUX_BASIS_CORR=rimp2-def2-QZVPPD, SCF_ALGORITHM=GDM, xc_grid=000099000590, mem_total=15000, num_basis=840, num_pairs=322796, num_threads=4
C  1.7398807519  1.1513213009  -0.0975560501
C  1.7069217518  -0.3705537002  -0.2058300503
C  0.5903477508  -1.0413657008  0.6043919508
C  -0.7100292509  -1.2716577012  -0.1674080503
C  -1.4148902514  -0.0191356999  -0.6830090506
C  -1.8717342517  0.9157733010  0.4301419505
H  1.8632607517  1.4547713013  0.9423409507
H  0.8258187506  1.6095983015  -0.4676950503
H  2.5725497523  1.5663583014  -0.6644070505
H  2.6705947526  -0.7535197008  0.1332599500
H  1.6162947514  -0.6666727008  -1.2541730513
H  0.3972467503  -0.4577107002  1.5077819514
H  0.9387827508  -2.0167767018  0.9483389510
H  -1.4057752511  -1.8199077016  0.4738279502
H  -0.4903632504  -1.9276897019  -1.0136590510
H  -2.2845002520  -0.3294297005  -1.2653940512
H  -0.7641452506  0.5139933003  -1.3780320512
H  -2.4207862525  1.7674103016  0.0308809500
H  -1.0306912509  1.3042093015  1.0017279511
H  -2.5287832527  0.3909843004  1.1244709511