20
charge=0, multiplicity=1, basis=def2-QZVPPD, AUX_BASIS_CORR=rimp2-def2-QZVPPD, SCF_ALGORITHM=GDM, xc_grid=000099000590, mem_total=15000, num_basis=840, num_pairs=302743, num_threads=4
C  0.6828600008  2.9336410027  -0.2998549002
C  0.6828600008  1.4134210013  -0.3976839003
C  -0.0302939999  0.7623850006  0.7816901007
C  0.0302939999  -0.7623850006  0.7816901007
C  -0.6828600008  -1.4134210013  -0.3976839003
C  -0.6828600008  -2.9336410027  -0.2998549002
H  1.1847770013  3.2631590031  0.6097441006
H  -0.3365920006  3.3183990033  -0.2721669003
H  1.1899610010  3.3922350033  -1.1473159013
H  1.7113260015  1.0456920008  -0.4386879006
H  0.2083120005  1.1111980010  -1.3321029011
H  -1.0766270011  1.0821410011  0.7892241009
H  0.4124820004  1.1395280009  1.7071541016
H  -0.4124820004  -1.1395280009  1.7071541016
H  1.0766270011  -1.0821410011  0.7892241009
H  -0.2083120005  -1.1111980010  -1.3321029011
H  -1.7113260015  -1.0456920008  -0.4386879006
H  -1.1899610010  -3.3922350033  -1.1473159013
H  -1.1847770013  -3.2631590031  0.6097441006
H  0.3365920006  -3.3183990033  -0.2721669003