17
charge=0, multiplicity=1, basis=def2-QZVPPD, AUX_BASIS_CORR=rimp2-def2-QZVPPD, SCF_ALGORITHM=GDM, xc_grid=000099000590, mem_total=7500, num_basis=711, num_pairs=225397, num_threads=2
C  0.0000000000  2.5329960026  0.3016590004
C  0.0000000000  1.2718280013  -0.5518820006
C  0.0000000000  0.0000000000  0.2852800004
C  0.0000000000  -1.2718280013  -0.5518820006
C  0.0000000000  -2.5329960026  0.3016590004
H  0.0000000000  3.4338710036  -0.3098900003
H  0.8744430007  -1.2692440012  -1.2065370011
H  -0.8744430007  -1.2692440012  -1.2065370011
H  0.8796270010  2.5651410026  0.9443720008
H  -0.8796270010  2.5651410026  0.9443720008
H  -0.8751330008  0.0000000000  0.9418030008
H  0.8751330008  0.0000000000  0.9418030008
H  -0.8744430007  1.2692440012  -1.2065370011
H  0.8744430007  1.2692440012  -1.2065370011
H  0.0000000000  -3.4338710036  -0.3098900003
H  0.8796270010  -2.5651410026  0.9443720008
H  -0.8796270010  -2.5651410026  0.9443720008