20
charge=0, multiplicity=1, basis=def2-QZVPPD, AUX_BASIS_CORR=rimp2-def2-QZVPPD, SCF_ALGORITHM=GDM, xc_grid=000099000590, mem_total=15000, num_basis=840, num_pairs=303342, num_threads=4
C  2.5453098023  0.8540702508  -0.2157316500
C  2.0606448019  -0.4722867502  0.3583753504
C  0.6950288006  -0.9000777511  -0.1729466502
C  -0.4402372004  0.0444542503  0.2025993502
C  -1.8033972016  -0.4588477505  -0.2547456502
C  -2.9321102028  0.4942902504  0.1155533499
H  1.8988118018  1.6790112515  0.0779023500
H  2.5638938024  0.8172702510  -1.3055076511
H  3.5521608037  1.0874192510  0.1270583502
H  2.0147538021  -0.4052627506  1.4479893513
H  2.7909308028  -1.2498967513  0.1279703501
H  0.4590618003  -1.8977307518  0.2057543500
H  0.7441318005  -0.9872777510  -1.2624536515
H  -0.2661212005  1.0321592510  -0.2300196501
H  -0.4516592002  0.1799272504  1.2886493513
H  -1.9892982022  -1.4406557514  0.1864743500
H  -1.7849412015  -0.6061997506  -1.3370466511
H  -3.8999922037  0.1210282504  -0.2154336502
H  -2.7773342026  1.4724342512  -0.3395946505
H  -2.9796372028  0.6361712504  1.1951533514