20
charge=0, multiplicity=1, basis=def2-QZVPPD, AUX_BASIS_CORR=rimp2-def2-QZVPPD, SCF_ALGORITHM=GDM, xc_grid=000099000590, mem_total=15000, num_basis=840, num_pairs=323225, num_threads=4
C  -0.0682369999  1.7524130017  -1.0740074011
C  0.8235520009  1.3873440011  0.1091276002
C  0.0682369999  0.7620760008  1.2880786013
C  -0.0682369999  -0.7620760008  1.2880786013
C  -0.8235520009  -1.3873440011  0.1091276002
C  0.0682369999  -1.7524130017  -1.0740074011
H  -0.8116940008  2.4889530024  -0.7689534010
H  -0.6036060005  0.8910790010  -1.4664814013
H  0.5119210006  2.1842690019  -1.8888844020
H  1.3162560011  2.2987960023  0.4514676003
H  1.6237760017  0.7158550008  -0.2093724001
H  -0.9292250007  1.2083430009  1.3433296015
H  0.5731880006  1.0388490008  2.2156956022
H  -0.5731880006  -1.0388490008  2.2156956022
H  0.9292250007  -1.2083430009  1.3433296015
H  -1.6237760017  -0.7158550008  -0.2093724001
H  -1.3162560011  -2.2987960023  0.4514676003
H  -0.5119210006  -2.1842690019  -1.8888844020
H  0.8116940008  -2.4889530024  -0.7689534010
H  0.6036060005  -0.8910790010  -1.4664814013