20
charge=0, multiplicity=1, basis=def2-QZVPPD, AUX_BASIS_CORR=rimp2-def2-QZVPPD, SCF_ALGORITHM=GDM, xc_grid=000099000590, mem_total=15000, num_basis=840, num_pairs=313259, num_threads=4
C  2.6938472525  -0.4555021005  -0.0190604498
C  1.3318992513  -0.0185061001  0.5049705505
C  0.4805272504  0.6280999007  -0.5806494507
C  -0.8492357508  1.1842719009  -0.0751864499
C  -1.7546107519  0.1540259003  0.5984265505
C  -2.0973737519  -1.0250611009  -0.3040964504
H  3.2515462535  0.3970759006  -0.4062624502
H  2.5819002526  -1.1731091013  -0.8319584510
H  3.2945882535  -0.9235431009  0.7592365509
H  1.4609842517  0.6889739008  1.3280915513
H  0.8100552506  -0.8824011007  0.9202305510
H  0.3039122501  -0.0981931001  -1.3777254512
H  1.0512272511  1.4415049014  -1.0358604513
H  -1.3893887514  1.6306569018  -0.9141114509
H  -0.6467977506  1.9950319017  0.6291875504
H  -2.6758667528  0.6506909008  0.9075525510
H  -1.2850357514  -0.2094711004  1.5139075517
H  -2.8134487528  -1.6919721015  0.1735575500
H  -1.2134637511  -1.6125021017  -0.5487964507
H  -2.5352657526  -0.6800711008  -1.2414534512