20
charge=0, multiplicity=1, basis=def2-QZVPPD, AUX_BASIS_CORR=rimp2-def2-QZVPPD, SCF_ALGORITHM=GDM, xc_grid=000099000590, mem_total=15000, num_basis=840, num_pairs=307911, num_threads=4
C  -0.4884740002  -0.0789650002  2.7098060025
C  0.7151510008  0.1984210003  1.8163430020
C  0.5579950005  -0.3374840002  0.3947790005
C  -0.5579950005  0.3374840002  -0.3947790005
C  -0.7151510008  -0.1984210003  -1.8163430020
C  0.4884740002  0.0789650002  -2.7098060025
H  -0.7080120007  -1.1468160009  2.7374880026
H  -1.3805220015  0.4347470003  2.3565590022
H  -0.3037730001  0.2496780003  3.7314080039
H  1.6030000017  -0.2487320002  2.2667260020
H  0.9004180010  1.2744570015  1.7732910016
H  0.3657750003  -1.4143880013  0.4355710002
H  1.5041360013  -0.2112700002  -0.1337000002
H  -0.3657750003  1.4143880013  -0.4355710002
H  -1.5041360013  0.2112700002  0.1337000002
H  -1.6030000017  0.2487320002  -2.2667260020
H  -0.9004180010  -1.2744570015  -1.7732910016
H  0.3037730001  -0.2496780003  -3.7314080039
H  1.3805220015  -0.4347470003  -2.3565590022
H  0.7080120007  1.1468160009  -2.7374880026