17
charge=0, multiplicity=1, basis=def2-QZVPPD, mem_total=7500, AUX_BASIS_CORR=rimp2-def2-QZVPPD, SCF_ALGORITHM=GDM, xc_grid=000099000590, num_basis=711, num_pairs=230033, num_threads=2
C  2.4060824731  -0.1416254708  0.1081419411
C  0.9632214713  -0.3335164710  -0.3412320592
C  0.0367844706  0.7312755302  0.2338799414
C  -1.4038145308  0.6360515299  -0.2611590593
C  -2.1051445316  -0.6501184713  0.1605349412
H  3.0617114735  -0.9076644716  -0.3029200593
H  -1.4132705308  0.7187185303  -1.3506310602
H  -1.9668195312  1.4907895310  0.1175479413
H  2.4807244729  -0.1856094709  1.1946829425
H  2.7847814735  0.8296965304  -0.2096140588
H  0.4394284711  1.7156895311  -0.0179300590
H  0.0478894705  0.6640595302  1.3259799424
H  0.9085454713  -0.3011804707  -1.4323460601
H  0.6206994713  -1.3251434721  -0.0429020588
H  -3.1501325324  -0.6477714712  -0.1455250587
H  -1.6356085309  -1.5272074720  -0.2809380591
H  -2.0750785313  -0.7664434715  1.2444299426