20
charge=0, multiplicity=1, basis=def2-QZVPPD, AUX_BASIS_CORR=rimp2-def2-QZVPPD, SCF_ALGORITHM=GDM, xc_grid=000099000590, mem_total=15000, num_basis=840, num_pairs=312954, num_threads=4
C  -1.8263411018  1.2351493512  0.0224876503
C  -2.0339071021  -0.2557986503  -0.2140803504
C  -0.8989901009  -1.1412136513  0.2982996501
C  0.4675219006  -0.8416616509  -0.3317343502
C  1.3492709013  0.0892433499  0.4954206503
C  2.6681569028  0.4005353502  -0.1992873502
H  -0.9605731011  1.6088713518  -0.5221953504
H  -1.6713141018  1.4447903512  1.0811316511
H  -2.6929491026  1.8060603518  -0.3080143504
H  -2.1595121022  -0.4354686506  -1.2845343513
H  -2.9660341028  -0.5674536503  0.2609786504
H  -1.1696461013  -2.1806276520  0.1064046499
H  -0.8230471008  -1.0415036509  1.3849236514
H  0.3220739004  -0.4133556505  -1.3284593513
H  1.0161949010  -1.7738536516  -0.4831863505
H  1.5433409015  -0.3825096504  1.4614006516
H  0.8173979006  1.0162743511  0.7097426507
H  3.3020029034  1.0446863512  0.4081406504
H  2.4945059026  0.9031323509  -1.1508513509
H  3.2218479032  -0.5152966505  -0.4065873505