40
charge=0, multiplicity=1, basis=def2-QZVPPD, AUX_BASIS_CORR=rimp2-def2-QZVPPD, SCF_ALGORITHM=GDM, xc_grid=000099000590, mem_total=60000, num_basis=1680, num_pairs=1010114, num_threads=16
C  0.6455512306  -0.4075631456  1.9460356950
C  -0.6455512306  0.4075631456  1.9460356950
C  1.9052446805  0.4555481627  1.9460346950
C  -1.9052446805  -0.4555481627  1.9460346950
C  3.1888721389  -0.3704591323  1.9460346950
C  -3.1888721389  0.3704591323  1.9460346950
H  0.6587912353  -1.0666783810  2.8248310089
H  0.6587912353  -1.0666773810  1.0672393812
H  -0.6587912353  1.0666783810  2.8248310089
H  -0.6587912353  1.0666773810  1.0672393812
H  1.8904096752  1.1134623977  1.0680263814
H  1.8904086752  1.1134633977  2.8240440086
H  -1.8904096752  -1.1134623977  1.0680263814
H  -1.8904086752  -1.1134633977  2.8240440086
H  4.0768974561  0.2685300959  1.9460346950
H  3.2377871564  -1.0138303621  1.0619863793
H  3.2377871564  -1.0138303621  2.8300820108
H  -4.0768974561  -0.2685300959  1.9460346950
H  -3.2377871564  1.0138303621  1.0619863793
H  -3.2377871564  1.0138303621  2.8300820108
C  0.6455512306  0.4075631456  -1.9460356950
C  -0.6455512306  -0.4075631456  -1.9460356950
C  1.9052446805  -0.4555481627  -1.9460346950
C  -1.9052446805  0.4555481627  -1.9460346950
C  3.1888721389  0.3704591323  -1.9460346950
C  -3.1888721389  -0.3704591323  -1.9460346950
H  0.6587912353  1.0666783810  -2.8248310089
H  0.6587912353  1.0666773810  -1.0672393812
H  -0.6587912353  -1.0666783810  -2.8248310089
H  -0.6587912353  -1.0666773810  -1.0672393812
H  1.8904096752  -1.1134623977  -1.0680263814
H  1.8904086752  -1.1134633977  -2.8240440086
H  -1.8904096752  1.1134623977  -1.0680263814
H  -1.8904086752  1.1134633977  -2.8240440086
H  4.0768974561  -0.2685300959  -1.9460346950
H  3.2377871564  1.0138303621  -1.0619863793
H  3.2377871564  1.0138303621  -2.8300820108
H  -4.0768974561  0.2685300959  -1.9460346950
H  -3.2377871564  -1.0138303621  -1.0619863793
H  -3.2377871564  -1.0138303621  -2.8300820108