34
charge=0, multiplicity=1, basis=def2-QZVPPD, AUX_BASIS_CORR=rimp2-def2-QZVPPD, SCF_ALGORITHM=GDM, xc_grid=000099000590, mem_total=60000, num_basis=1422, num_pairs=764064, num_threads=16
C  -1.9517436971  0.2128360760  0.0000000000
C  -1.9517436971  -0.6256372235  1.2759574557
C  -1.9517436971  -0.6256372235  -1.2759574557
C  -1.9517436971  0.2249480803  2.5434139084
C  -1.9517436971  0.2249480803  -2.5434139084
H  -2.8304730109  0.8722963115  0.0000000000
H  -1.0730143832  0.8722963115  0.0000000000
H  -2.8297540107  -1.2837354585  1.2739334550
H  -1.0737333835  -1.2837354585  1.2739334550
H  -2.8297540107  -1.2837354585  -1.2739334550
H  -1.0737333835  -1.2837354585  -1.2739334550
H  -2.8357690128  0.8691633104  2.5798989214
H  -1.0677183813  0.8691633104  2.5798989214
H  -1.9517436971  -0.3967321417  3.4436172299
H  -2.8357690128  0.8691633104  -2.5798989214
H  -1.0677183813  0.8691633104  -2.5798989214
H  -1.9517436971  -0.3967321417  -3.4436172299
C  1.9517436971  -0.2128360760  0.0000000000
C  1.9517436971  0.6256372235  -1.2759574557
C  1.9517436971  0.6256372235  1.2759574557
C  1.9517436971  -0.2249480803  -2.5434139084
C  1.9517436971  -0.2249480803  2.5434139084
H  1.0730143832  -0.8722963115  0.0000000000
H  2.8304730109  -0.8722963115  0.0000000000
H  1.0737333835  1.2837354585  -1.2739334550
H  2.8297540107  1.2837354585  -1.2739334550
H  1.0737333835  1.2837354585  1.2739334550
H  2.8297540107  1.2837354585  1.2739334550
H  1.0677183813  -0.8691633104  -2.5798989214
H  2.8357690128  -0.8691633104  -2.5798989214
H  1.9517436971  0.3967321417  -3.4436172299
H  1.0677183813  -0.8691633104  2.5798989214
H  2.8357690128  -0.8691633104  2.5798989214
H  1.9517436971  0.3967321417  3.4436172299