8
charge=0, multiplicity=1, basis=def2-QZVPPD, AUX_BASIS_CORR=rimp2-def2-QZVPPD, SCF_ALGORITHM=GDM, xc_grid=000099000590, mem_total=3750, num_basis=324, num_pairs=53089, num_threads=1
C  0.0000000000  0.0000000000  0.7629882433
C  0.0000000000  0.0000000000  -0.7629882433
H  -0.8828090998  0.5096900714  1.1580401983
H  0.0000000000  -1.0193801429  1.1580401983
H  0.8828090998  0.5096900714  1.1580401983
H  0.8828090998  -0.5096900714  -1.1580401983
H  -0.8828090998  -0.5096900714  -1.1580401983
H  0.0000000000  1.0193801429  -1.1580401983