46
charge=0, multiplicity=1, basis=def2-QZVPPD, AUX_BASIS_CORR=rimp2-def2-QZVPPD, SCF_ALGORITHM=GDM, xc_grid=000099000590, mem_total=120000, num_basis=1938, num_pairs=1267210, num_threads=32
C  -1.9098776821  0.0905930324  0.0000000000
C  -1.9098776821  -0.7495232677  1.2752584555
C  -1.9098776821  -0.7495232677  -1.2752584555
C  -1.9098776821  0.0891130318  2.5513799113
C  -1.9098776821  0.0891130318  -2.5513799113
C  -1.9098776821  -0.7615922720  3.8187853639
C  -1.9098776821  -0.7615922720  -3.8187853639
H  -1.0310143682  0.7496292677  0.0000000000
H  -2.7887419960  0.7496292677  0.0000000000
H  -1.0310863683  -1.4087615032  1.2756534556
H  -2.7886699960  -1.4087615032  1.2756534556
H  -1.0310863683  -1.4087615032  -1.2756534556
H  -2.7886699960  -1.4087615032  -1.2756534556
H  -1.0318543685  0.7471852669  2.5492769105
H  -2.7879019957  0.7471852669  2.5492769105
H  -1.0318543685  0.7471852669  -2.5492769105
H  -2.7879019957  0.7471852669  -2.5492769105
H  -1.0258263664  -1.4057855021  3.8552163769
H  -2.7939299979  -1.4057855021  3.8552163769
H  -1.9098776821  -0.1399130500  4.7190206854
H  -1.0258263664  -1.4057855021  -3.8552163769
H  -2.7939299979  -1.4057855021  -3.8552163769
H  -1.9098776821  -0.1399130500  -4.7190206854
C  1.9098776821  -0.0905930324  0.0000000000
C  1.9098776821  0.7495232677  -1.2752584555
C  1.9098776821  0.7495232677  1.2752584555
C  1.9098776821  -0.0891130318  -2.5513799113
C  1.9098776821  -0.0891130318  2.5513799113
C  1.9098776821  0.7615922720  -3.8187853639
C  1.9098776821  0.7615922720  3.8187853639
H  2.7887419960  -0.7496292677  0.0000000000
H  1.0310143682  -0.7496292677  0.0000000000
H  2.7886699960  1.4087615032  -1.2756534556
H  1.0310863683  1.4087615032  -1.2756534556
H  2.7886699960  1.4087615032  1.2756534556
H  1.0310863683  1.4087615032  1.2756534556
H  2.7879019957  -0.7471852669  -2.5492769105
H  1.0318543685  -0.7471852669  -2.5492769105
H  2.7879019957  -0.7471852669  2.5492769105
H  1.0318543685  -0.7471852669  2.5492769105
H  2.7939299979  1.4057855021  -3.8552163769
H  1.0258263664  1.4057855021  -3.8552163769
H  1.9098776821  0.1399130500  -4.7190206854
H  2.7939299979  1.4057855021  3.8552163769
H  1.0258263664  1.4057855021  3.8552163769
H  1.9098776821  0.1399130500  4.7190206854