14
charge=0, multiplicity=1, basis=def2-QZVPPD, AUX_BASIS_CORR=rimp2-def2-QZVPPD, SCF_ALGORITHM=GDM, xc_grid=000099000590, mem_total=3750, num_basis=582, num_pairs=159466, num_threads=1
C  0.6232492226  0.4407581574  0.0000000000
C  -0.6232492226  -0.4407581574  0.0000000000
C  1.9195876856  -0.3647201303  0.0000000000
C  -1.9195876856  0.3647201303  0.0000000000
H  0.5976292134  1.0985823923  0.8779384564
H  0.5976292134  1.0985823923  -0.8779384564
H  -0.5976292134  -1.0985823923  0.8779384564
H  -0.5976292134  -1.0985823923  -0.8779384564
H  2.7973869991  0.2880911029  0.0000000000
H  1.9787877067  -1.0072833598  0.8840144586
H  1.9787877067  -1.0072833598  -0.8840144586
H  -2.7973869991  -0.2880911029  0.0000000000
H  -1.9787877067  1.0072833598  0.8840144586
H  -1.9787877067  1.0072833598  -0.8840144586