16
charge=0, multiplicity=1, basis=def2-QZVPPD, AUX_BASIS_CORR=rimp2-def2-QZVPPD, SCF_ALGORITHM=GDM, xc_grid=000099000590, mem_total=7500, num_basis=648, num_pairs=183646, num_threads=2
C  0.6841602444  0.3377511206  -1.9114826827
C  -0.6841602444  -0.3377511206  -1.9114826827
H  1.4896455320  -0.4014341434  -1.9114826827
H  0.8127732903  0.9696603463  -2.7942919980
H  0.8127732903  0.9696603463  -1.0286733674
H  -1.4896455320  0.4014341434  -1.9114826827
H  -0.8127732903  -0.9696603463  -2.7942919980
H  -0.8127732903  -0.9696603463  -1.0286733674
C  0.6841602444  -0.3377511206  1.9114826827
C  -0.6841602444  0.3377511206  1.9114826827
H  1.4896455320  0.4014341434  1.9114826827
H  0.8127732903  -0.9696603463  2.7942919980
H  0.8127732903  -0.9696603463  1.0286733674
H  -1.4896455320  -0.4014341434  1.9114826827
H  -0.8127732903  0.9696603463  2.7942919980
H  -0.8127732903  0.9696603463  1.0286733674