28
charge=0, multiplicity=1, basis=def2-QZVPPD, AUX_BASIS_CORR=rimp2-def2-QZVPPD, SCF_ALGORITHM=GDM, xc_grid=000099000590, mem_total=30000, num_basis=1164, num_pairs=542124, num_threads=8
C  0.6232492226  0.4407581574  -1.9501636965
C  -0.6232492226  -0.4407581574  -1.9501636965
C  1.9195876856  -0.3647201303  -1.9501626965
C  -1.9195876856  0.3647201303  -1.9501626965
H  0.5976292134  1.0985823924  -1.0722243829
H  0.5976282134  1.0985833924  -2.8281020101
H  -0.5976292134  -1.0985823924  -1.0722243829
H  -0.5976282134  -1.0985833924  -2.8281020101
H  2.7973869991  0.2880911029  -1.9501626965
H  1.9787877067  -1.0072833598  -1.0661483808
H  1.9787887067  -1.0072843598  -2.8341760122
H  -2.7973869991  -0.2880911029  -1.9501626965
H  -1.9787877067  1.0072833598  -1.0661483808
H  -1.9787887067  1.0072843598  -2.8341760122
C  0.6232492226  -0.4407581574  1.9501636965
C  -0.6232492226  0.4407581574  1.9501636965
C  1.9195876856  0.3647201303  1.9501626965
C  -1.9195876856  -0.3647201303  1.9501626965
H  0.5976292134  -1.0985823924  1.0722243829
H  0.5976282134  -1.0985833924  2.8281020101
H  -0.5976292134  1.0985823924  1.0722243829
H  -0.5976282134  1.0985833924  2.8281020101
H  2.7973869991  -0.2880911029  1.9501626965
H  1.9787877067  1.0072833598  1.0661483808
H  1.9787887067  1.0072843598  2.8341760122
H  -2.7973869991  0.2880911029  1.9501626965
H  -1.9787877067  -1.0072833598  1.0661483808
H  -1.9787887067  -1.0072843598  2.8341760122