3
charge=0, multiplicity=1, basis=def2-QZVPPD, AUX_BASIS_CORR=rimp2-def2-QZVPPD, SCF_ALGORITHM=GDM, xc_grid=000099000590, mem_total=3750, num_basis=145, num_pairs=10840, num_threads=1
S  -0.4513780500  -0.5073795800  0.0841854500
H  0.8428219800  -0.1757797700  0.0733361100
H  -0.8577182100  0.8383822100  0.0653308700