4
charge=0, multiplicity=1, basis=def2-QZVPPD, AUX_BASIS_CORR=rimp2-def2-QZVPPD, SCF_ALGORITHM=GDM, xc_grid=000099000590, mem_total=3750, num_basis=162, num_pairs=13492, num_threads=1
N  -1.1064133900  -0.0990907000  1.6387092600
H  -0.6233827200  -0.9878049900  1.5736419100
H  -0.6305270800  0.4109772600  2.3741657200
H  -0.8678242100  0.4021601800  0.7758618100