4
charge=-1, multiplicity=1, basis=def2-QZVPPD, AUX_BASIS_CORR=rimp2-def2-QZVPPD, SCF_ALGORITHM=GDM, xc_grid=000099000590, mem_total=3750, num_basis=211, num_pairs=21766, num_threads=1
S  -0.4335991600  -0.5208703600  0.0821214300
H  0.8750395400  -0.2325049200  0.0737578900
H  -0.9986353500  1.3645361900  0.0599227400
F  -1.2947367500  2.3047970300  0.0485706300