3
charge=0, multiplicity=1, basis=def2-QZVPPD, AUX_BASIS_CORR=rimp2-def2-QZVPPD, SCF_ALGORITHM=GDM, xc_grid=000099000590, mem_total=3750, num_basis=132, num_pairs=9017, num_threads=1
H  -1.0939282800  1.6135397900  0.5103064900
O  -1.3851877000  2.5631669800  0.5589465100
H  -1.4940990100  2.7575591800  -0.3761792000