4
charge=-1, multiplicity=1, basis=def2-QZVPPD, AUX_BASIS_CORR=rimp2-def2-QZVPPD, SCF_ALGORITHM=GDM, xc_grid=000099000590, mem_total=3750, num_basis=228, num_pairs=26437, num_threads=1
O  1.3708858900  -0.6395121400  0.0095592000
O  0.9268471600  1.6067596500  -0.1818235000
C  0.6219361800  0.3628994500  -0.0618093000
H  -0.4878177200  0.1814638200  -0.0174187300