3
charge=-1, multiplicity=1, basis=def2-QZVPPD, AUX_BASIS_CORR=rimp2-def2-QZVPPD, SCF_ALGORITHM=GDM, xc_grid=000099000590, mem_total=3750, num_basis=191, num_pairs=18228, num_threads=1
Cl  -1.0843247000  -0.3773749700  0.8015474700
H  -0.9189247600  0.2767412200  -0.5944477200
Cl  -0.7548901400  0.9332094400  -1.9983145300