3
charge=0, multiplicity=1, basis=def2-QZVPPD, AUX_BASIS_CORR=rimp2-def2-QZVPPD, SCF_ALGORITHM=GDM, xc_grid=000099000590, mem_total=3750, num_basis=132, num_pairs=9017, num_threads=1
O  -2.6421361900  0.8411365700  -0.0162146600
H  -1.6587303800  0.7885923200  0.0090311600
H  -2.7781314900  1.7916193500  0.0024111500