4
charge=-1, multiplicity=1, basis=def2-QZVPPD, AUX_BASIS_CORR=rimp2-def2-QZVPPD, SCF_ALGORITHM=GDM, xc_grid=000099000590, mem_total=3750, num_basis=228, num_pairs=26437, num_threads=1
O  1.5977536800  -0.2264465200  -0.0275202500
O  0.4749651100  1.7714633400  -0.1845098800
C  0.5604028400  0.5080743400  -0.0722943400
H  -0.4231416300  -0.0397460800  -0.0033537000