3
charge=-1, multiplicity=1, basis=def2-QZVPPD, AUX_BASIS_CORR=rimp2-def2-QZVPPD, SCF_ALGORITHM=GDM, xc_grid=000099000590, mem_total=3750, num_basis=189, num_pairs=18264, num_threads=1
N  -6.0621075900  1.0771482700  0.1240269100
N  -4.9480154100  1.4388083700  0.4093913300
N  -7.1816965500  0.7579418300  -0.1486349400