4
charge=0, multiplicity=1, basis=def2-QZVPPD, AUX_BASIS_CORR=rimp2-def2-QZVPPD, SCF_ALGORITHM=GDM, xc_grid=000099000590, mem_total=3750, num_basis=162, num_pairs=13492, num_threads=1
N  -1.1495505800  -0.0399443300  1.5977359100
H  -0.7993897300  -0.9919745400  1.5888382800
H  -0.7131478000  0.3976979300  2.4021449500
H  -0.7006725300  0.4080985900  0.7846341800