3
charge=-1, multiplicity=1, basis=def2-QZVPPD, AUX_BASIS_CORR=rimp2-def2-QZVPPD, SCF_ALGORITHM=GDM, xc_grid=000099000590, mem_total=3750, num_basis=189, num_pairs=18264, num_threads=1
N  -1.7332911900  3.5914937200  0.1406387800
N  -1.2110378600  2.5057130600  0.1180677900
N  -2.2548758000  4.6730959300  0.1598317700