6
charge=0, multiplicity=1, basis=def2-QZVPPD, AUX_BASIS_CORR=rimp2-def2-QZVPPD, SCF_ALGORITHM=GDM, xc_grid=000099000590, mem_total=3750, num_basis=261, num_pairs=34660, num_threads=1
H  2.3049946500  2.0152355800  -0.2886660600
O  3.2368638700  2.3765065600  -0.2622252600
C  4.0871525700  1.2373245800  -0.3269174600
H  5.0520928800  1.4930978300  0.1460550100
H  3.6389879600  0.3745652500  0.1947375100
H  4.2941647300  0.9384192200  -1.3756322900