4
charge=-1, multiplicity=1, basis=def2-QZVPPD, AUX_BASIS_CORR=rimp2-def2-QZVPPD, SCF_ALGORITHM=GDM, xc_grid=000099000590, mem_total=3750, num_basis=228, num_pairs=26437, num_threads=1
O  1.3805083100  -0.6142758500  0.6455369200
O  0.7599963800  1.3416513000  -0.3841626400
C  0.5623719600  0.1724026600  0.0942213700
H  -0.5000998800  -0.1942600300  0.0014523300