3
charge=-1, multiplicity=1, basis=def2-QZVPPD, AUX_BASIS_CORR=rimp2-def2-QZVPPD, SCF_ALGORITHM=GDM, xc_grid=000099000590, mem_total=3750, num_basis=189, num_pairs=18264, num_threads=1
N  1.3390302000  1.0213403600  0.0600544800
N  0.1364237400  1.0796468400  0.0699262800
N  2.5391195000  0.9742849400  0.0522132700