3
charge=0, multiplicity=1, basis=def2-QZVPPD, AUX_BASIS_CORR=rimp2-def2-QZVPPD, SCF_ALGORITHM=GDM, xc_grid=000099000590, mem_total=3750, num_basis=132, num_pairs=9017, num_threads=1
O  -1.2311097300  0.0979042900  -0.0537244000
H  -0.1177379200  0.0336687800  -0.0652834800
H  -1.4689696200  -0.6559198600  0.4931031400