4
charge=0, multiplicity=1, basis=def2-QZVPPD, AUX_BASIS_CORR=rimp2-def2-QZVPPD, SCF_ALGORITHM=GDM, xc_grid=000099000590, mem_total=3750, num_basis=313, num_pairs=46920, num_threads=1
Al  0.0000000000  0.0000000000  0.0000000000
Cl  1.0381030000  1.7980471400  0.0000000000
Cl  1.0381030000  -1.7980471400  0.0000000000
Cl  -2.0762060000  0.0000000000  0.0000000000