4
charge=0, multiplicity=1, basis=def2-QZVPPD, AUX_BASIS_CORR=rimp2-def2-QZVPPD, SCF_ALGORITHM=GDM, xc_grid=000099000590, mem_total=3750, num_basis=274, num_pairs=36030, num_threads=1
Al  0.0000000000  0.0000000000  0.0000000000
F  0.8175800000  1.4160901000  0.0000000000
F  0.8175800000  -1.4160901000  0.0000000000
F  -1.6351600000  0.0000000000  0.0000000000