8
charge=0, multiplicity=1, basis=def2-QZVPPD, AUX_BASIS_CORR=rimp2-def2-QZVPPD, SCF_ALGORITHM=GDM, xc_grid=000099000590, mem_total=3750, num_basis=350, num_pairs=59321, num_threads=1
Al  0.0000000000  0.0000000000  -1.3065640000
Al  0.0000000000  0.0000000000  1.3065640000
H  0.0000000000  1.1454930000  0.0000000000
H  0.0000000000  -1.1454930000  0.0000000000
H  1.4107210000  0.0000000000  -1.9967730000
H  -1.4107210000  0.0000000000  -1.9967730000
H  -1.4107210000  0.0000000000  1.9967730000
H  1.4107210000  0.0000000000  1.9967730000