4
charge=0, multiplicity=1, basis=def2-QZVPPD, AUX_BASIS_CORR=rimp2-def2-QZVPPD, SCF_ALGORITHM=GDM, xc_grid=000099000590, mem_total=3750, num_basis=175, num_pairs=15705, num_threads=1
Al  0.0000000000  0.0000000000  0.0000000000
H  0.0000000000  0.0000000000  1.5785180000
H  -1.3670370000  0.0000000000  -0.7892590000
H  1.3670370000  0.0000000000  -0.7892590000