5
charge=0, multiplicity=1, basis=def2-QZVPPD, AUX_BASIS_CORR=rimp2-def2-QZVPPD, SCF_ALGORITHM=GDM, xc_grid=000099000590, mem_total=3750, num_basis=197, num_pairs=19839, num_threads=1
C  0.0000000000  0.0000000000  -0.1355349000
Li  0.0000000000  0.0000000000  1.8389425000
H  -0.5035124000  0.8721091000  -0.5678726000
H  -0.5035124000  -0.8721091000  -0.5678726000
H  1.0070249000  0.0000000000  -0.5678726000