8
charge=0, multiplicity=1, basis=def2-QZVPPD, AUX_BASIS_CORR=rimp2-def2-QZVPPD, SCF_ALGORITHM=GDM, xc_grid=000099000590, mem_total=3750, num_basis=280, num_pairs=39268, num_threads=1
Li  1.8223595000  -1.8223595000  1.8223595000
Li  -1.8223595000  1.8223595000  1.8223595000
Li  1.8223595000  1.8223595000  -1.8223595000
Li  -1.8223595000  -1.8223595000  -1.8223595000
Li  1.0415779000  1.0415779000  1.0415779000
Li  -1.0415779000  1.0415779000  -1.0415779000
Li  -1.0415779000  -1.0415779000  1.0415779000
Li  1.0415779000  -1.0415779000  -1.0415779000