4
charge=0, multiplicity=1, basis=def2-QZVPPD, AUX_BASIS_CORR=rimp2-def2-QZVPPD, SCF_ALGORITHM=GDM, xc_grid=000099000590, mem_total=3750, num_basis=159, num_pairs=12931, num_threads=1
Na  0.0000000000  -1.4299872000  -0.0035112000
Li  0.0000000000  1.1385615000  0.0028029000
H  -1.4397499000  0.1457128000  0.0003542000
H  1.4397499000  0.1457128000  0.0003542000