7
charge=0, multiplicity=1, basis=def2-QZVPPD, AUX_BASIS_CORR=rimp2-def2-QZVPPD, SCF_ALGORITHM=GDM, xc_grid=000099000590, mem_total=3750, num_basis=265, num_pairs=34760, num_threads=1
C  0.1423305000  -0.1047244000  0.7354948000
Li  -0.4295840000  -0.9472438000  -1.0953035000
Li  0.0417824000  1.2150991000  -0.9034379000
H  -0.4512375000  0.3071945000  -2.3127803000
H  0.4428500000  0.8013100000  1.2862972000
H  0.9620338000  -0.8011453000  0.9615986000
H  -0.7081752000  -0.4704900000  1.3281311000