20
charge=0, multiplicity=1, basis=def2-QZVPPD, AUX_BASIS_CORR=rimp2-def2-QZVPPD, SCF_ALGORITHM=GDM, xc_grid=000099000590, mem_total=7500, num_basis=788, num_pairs=268502, num_threads=2
Li  0.8400478000  -0.8400478000  0.8400478000
Li  -0.8400478000  0.8400478000  0.8400478000
Li  -0.8400478000  -0.8400478000  -0.8400478000
Li  0.8400478000  0.8400478000  -0.8400478000
C  -1.2620881000  -1.2620881000  1.2620881000
C  1.2620881000  -1.2620881000  -1.2620881000
C  -1.2620881000  1.2620881000  -1.2620881000
C  1.2620881000  1.2620881000  1.2620881000
H  -2.3468341000  -1.1299156000  1.1299156000
H  -1.1299156000  -2.3468341000  1.1299156000
H  -1.1299156000  -1.1299156000  2.3468341000
H  1.1299156000  2.3468341000  1.1299156000
H  1.1299156000  1.1299156000  2.3468341000
H  2.3468341000  1.1299156000  1.1299156000
H  1.1299156000  -1.1299156000  -2.3468341000
H  2.3468341000  -1.1299156000  -1.1299156000
H  1.1299156000  -2.3468341000  -1.1299156000
H  -1.1299156000  1.1299156000  -2.3468341000
H  -2.3468341000  1.1299156000  -1.1299156000
H  -1.1299156000  2.3468341000  -1.1299156000