7
charge=0, multiplicity=1, basis=def2-QZVPPD, AUX_BASIS_CORR=rimp2-def2-QZVPPD, SCF_ALGORITHM=GDM, xc_grid=000099000590, mem_total=3750, num_basis=267, num_pairs=35544, num_threads=1
C  0.0221521000  0.9322105000  0.0000000000
Li  -0.0846323000  -3.6131345000  0.0000000000
H  -0.9408839000  1.4659113000  0.0000000000
H  0.5339901000  1.3618377000  -0.8736898000
H  0.5339901000  1.3618377000  0.8736898000
Li  1.1637452000  -0.7805582000  0.0000000000
Li  -1.2283611000  -0.7281045000  0.0000000000