12
charge=0, multiplicity=1, basis=def2-QZVPPD, AUX_BASIS_CORR=rimp2-def2-QZVPPD, SCF_ALGORITHM=GDM, xc_grid=000099000590, mem_total=3750, num_basis=529, num_pairs=134678, num_threads=1
Si  -1.1765062000  -0.5821294000  -0.1324952000
C  1.0137683000  -0.7003580000  -0.3098433000
C  1.2267200000  0.6148820000  0.1018528000
H  1.7178327000  -1.2464475000  -0.9348581000
H  0.6784305000  -1.3363752000  0.5160948000
C  -0.0074293000  1.2478232000  0.3619010000
H  2.2059209000  1.0823935000  0.2074074000
H  -0.4892151000  1.5790776000  -0.5541432000
H  -0.0851766000  2.0274100000  1.1206472000
H  -2.3300220000  0.1921644000  -0.6534259000
H  -1.4658618000  -1.0617275000  1.2372811000
H  -1.2884613000  -1.8167132000  -0.9604186000