8
charge=0, multiplicity=1, basis=def2-QZVPPD, AUX_BASIS_CORR=rimp2-def2-QZVPPD, SCF_ALGORITHM=GDM, xc_grid=000099000590, mem_total=3750, num_basis=396, num_pairs=73010, num_threads=1
H  -0.3020620000  1.4055850000  0.0000000000
H  1.4055850000  0.3020620000  0.0000000000
H  0.3020620000  -1.4055850000  0.0000000000
H  -1.4055850000  -0.3020620000  0.0000000000
F  1.2495410000  1.2495410000  0.0000000000
F  -1.2495410000  1.2495410000  0.0000000000
F  1.2495410000  -1.2495410000  0.0000000000
F  -1.2495410000  -1.2495410000  0.0000000000