9
charge=0, multiplicity=1, basis=def2-QZVPPD, AUX_BASIS_CORR=rimp2-def2-QZVPPD, SCF_ALGORITHM=GDM, xc_grid=000099000590, mem_total=3750, num_basis=450, num_pairs=100137, num_threads=1
C  0.7762290000  -1.1629700000  0.0000000000
C  -0.6062810000  -1.2633190000  0.0000000000
O  -1.1272460000  0.7308790000  0.0000000000
N  0.0000000000  1.2294470000  0.0000000000
N  1.0915310000  0.8131670000  0.0000000000
H  1.3241900000  -1.3409360000  0.9140070000
H  1.3241900000  -1.3409360000  -0.9140070000
H  -1.1454050000  -1.4528620000  0.9155690000
H  -1.1454050000  -1.4528620000  -0.9155690000