12
charge=0, multiplicity=1, basis=def2-QZVPPD, AUX_BASIS_CORR=rimp2-def2-QZVPPD, SCF_ALGORITHM=GDM, xc_grid=000099000590, mem_total=3750, num_basis=529, num_pairs=132769, num_threads=1
Si  -1.3418615000  -0.8206294000  -0.3383459000
C  0.5366620000  -0.8019029000  -0.1784067000
C  1.1754740000  0.4922562000  0.2267866000
H  0.9652399000  -1.1299744000  -1.1334043000
H  0.8293912000  -1.5845405000  0.5324408000
C  0.5551338000  1.6308725000  0.5044071000
H  2.2608954000  0.4740517000  0.2959107000
H  -0.5232163000  1.7432822000  0.4610021000
H  1.1094071000  2.5161533000  0.7884021000
H  -1.8020550000  0.1419220000  -1.3576988000
H  -1.9937159000  -0.4885147000  0.9430933000
H  -1.7713547000  -2.1729760000  -0.7441870000