5
charge=0, multiplicity=1, basis=def2-QZVPPD, mem_total=3750, AUX_BASIS_CORR=rimp2-def2-QZVPPD, SCF_ALGORITHM=GDM, xc_grid=000099000590, num_basis=255, num_pairs=32593, num_threads=1
C  1.2333230000  0.0095890000  -0.1359510000
H  2.0409480000  0.0289810000  0.5734990000
N  0.0553240000  0.0146030000  0.0144200000
N  -1.1708730000  -0.1374750000  0.0187460000
H  -1.6320420000  0.7735850000  0.0100410000