10
charge=0, multiplicity=1, basis=def2-QZVPPD, AUX_BASIS_CORR=rimp2-def2-QZVPPD, SCF_ALGORITHM=GDM, xc_grid=000099000590, mem_total=3750, num_basis=450, num_pairs=100356, num_threads=1
H  1.2535550000  -1.4451500000  -1.1042090000
C  0.3840740000  -0.9946610000  -0.6268510000
C  -0.3840740000  0.9946610000  -0.6268510000
C  0.3840740000  -0.5660360000  0.7336120000
C  -0.3840740000  0.5660360000  0.7336120000
H  -1.2535550000  1.4451500000  -1.1042090000
H  -0.9520470000  1.0104940000  1.5422680000
H  -0.5557450000  -1.2707470000  -1.0786280000
H  0.5557450000  1.2707470000  -1.0786280000
H  0.9520470000  -1.0104940000  1.5422680000