16
charge=0, multiplicity=1, basis=def2-QZVPPD, AUX_BASIS_CORR=rimp2-def2-QZVPPD, SCF_ALGORITHM=GDM, xc_grid=000099000590, mem_total=7500, num_basis=708, num_pairs=237495, num_threads=2
C  0.4999980000  -0.4250610000  1.4261970000
C  0.4999980000  -0.4250610000  -1.4261970000
C  -0.2614630000  -1.3152530000  0.6989970000
C  -0.2614630000  -1.3152530000  -0.6989970000
C  -0.2614630000  1.5470600000  0.6914900000
C  -0.2614630000  1.5470600000  -0.6914900000
H  0.3852460000  -0.3679980000  2.5002570000
H  1.4555190000  -0.0886170000  1.0551960000
H  0.3852460000  -0.3679980000  -2.5002570000
H  1.4555190000  -0.0886170000  -1.0551960000
H  -1.0350480000  -1.8771290000  1.2091380000
H  -1.0350480000  -1.8771290000  -1.2091380000
H  0.5199230000  2.0670390000  1.2273110000
H  -1.1880740000  1.4262300000  1.2306460000
H  0.5199230000  2.0670390000  -1.2273110000
H  -1.1880740000  1.4262300000  -1.2306460000