11
charge=0, multiplicity=1, basis=def2-QZVPPD, AUX_BASIS_CORR=rimp2-def2-QZVPPD, SCF_ALGORITHM=GDM, xc_grid=000099000590, mem_total=3750, num_basis=513, num_pairs=128355, num_threads=1
C  0.8703990000  -1.2782020000  0.0000000000
C  -0.4991130000  -1.3762910000  0.0000000000
C  -1.2237580000  0.7011070000  0.0000000000
N  0.0000000000  1.2617910000  0.0000000000
N  1.1204360000  1.0139560000  0.0000000000
H  1.4368190000  -1.3557130000  0.9162430000
H  1.4368190000  -1.3557130000  -0.9162430000
H  -1.0222090000  -1.6296830000  0.9119860000
H  -1.0222090000  -1.6296830000  -0.9119860000
H  -1.7787180000  0.8804360000  -0.9139650000
H  -1.7787180000  0.8804360000  0.9139650000