13
charge=0, multiplicity=1, basis=def2-QZVPPD, AUX_BASIS_CORR=rimp2-def2-QZVPPD, SCF_ALGORITHM=GDM, xc_grid=000099000590, mem_total=3750, num_basis=579, num_pairs=162901, num_threads=1
C  1.3656880000  0.7155540000  -0.0736850000
C  1.4213200000  -0.6584830000  -0.0609370000
N  -0.7936420000  -1.2382670000  0.1304860000
N  -1.2303450000  -0.0612770000  -0.2724480000
C  -0.8111180000  1.1140060000  0.2146250000
H  1.6671710000  1.2794870000  0.7985460000
H  1.4319710000  1.2535450000  -1.0092780000
H  1.7063380000  -1.1931300000  0.8342000000
H  1.4700900000  -1.2272390000  -0.9757830000
H  -0.6020890000  -1.1548690000  1.1263010000
H  -1.5182540000  -0.0685730000  -1.2419340000
H  -1.1534710000  1.9997000000  -0.3027770000
H  -0.6891850000  1.1814170000  1.2844480000