14
charge=0, multiplicity=1, basis=def2-QZVPPD, AUX_BASIS_CORR=rimp2-def2-QZVPPD, SCF_ALGORITHM=GDM, xc_grid=000099000590, mem_total=7500, num_basis=642, num_pairs=195032, num_threads=2
C  -0.1056880000  -1.1989390000  1.1259410000
C  0.1866240000  0.1195800000  1.4712540000
C  -0.1056880000  1.2378520000  0.7011200000
C  -0.1056880000  1.2378520000  -0.7011200000
C  0.1866240000  0.1195800000  -1.4712540000
C  -0.1056880000  -1.1989390000  -1.1259410000
H  0.8298430000  0.2909110000  2.3305610000
H  -0.0071950000  2.2095790000  1.1711910000
H  -0.0071950000  2.2095790000  -1.1711910000
H  0.8298430000  0.2909110000  -2.3305610000
H  0.4518320000  -1.9921210000  -1.6129860000
H  -1.1259710000  -1.4593280000  -0.9231240000
H  0.4518320000  -1.9921210000  1.6129860000
H  -1.1259710000  -1.4593280000  0.9231240000