6
charge=0, multiplicity=1, basis=def2-QZVPPD, AUX_BASIS_CORR=rimp2-def2-QZVPPD, SCF_ALGORITHM=GDM, xc_grid=000099000590, mem_total=3750, num_basis=288, num_pairs=41364, num_threads=1
C  0.0961400000  -1.1704110000  0.0000000000
N  0.0000000000  0.0997920000  0.0000000000
C  -0.2401390000  1.2894790000  0.0000000000
H  0.1342980000  -1.7018510000  0.9398440000
H  0.1342980000  -1.7018510000  -0.9398440000
H  0.5953970000  1.9907500000  0.0000000000