12
charge=0, multiplicity=1, basis=def2-QZVPPD, AUX_BASIS_CORR=rimp2-def2-QZVPPD, SCF_ALGORITHM=GDM, xc_grid=000099000590, mem_total=3750, num_basis=576, num_pairs=140795, num_threads=1
C  -0.5934616000  -0.0828801000  2.1976505000
C  0.5934616000  0.0828801000  2.1976505000
C  2.5657378000  0.4795932000  -1.2562971000
C  1.5016280000  0.9242954000  -0.9287088000
C  -2.5657378000  -0.4795932000  -1.2562971000
C  -1.5016280000  -0.9242954000  -0.9287088000
H  -1.6464558000  -0.2314043000  2.1854517000
H  1.6464558000  0.2314043000  2.1854517000
H  3.5092755000  0.0890095000  -1.5537781000
H  0.5528529000  1.3075657000  -0.6343544000
H  -3.5092755000  -0.0890095000  -1.5537781000
H  -0.5528529000  -1.3075657000  -0.6343544000