12
charge=0, multiplicity=1, basis=def2-QZVPPD, AUX_BASIS_CORR=rimp2-def2-QZVPPD, SCF_ALGORITHM=GDM, xc_grid=000099000590, mem_total=3750, num_basis=546, num_pairs=143204, num_threads=1
C  0.8011290000  -1.4083260000  0.0000000000
C  -0.5567740000  -1.4771530000  0.0000000000
C  -1.2375550000  0.8747600000  0.0000000000
N  0.0000000000  1.2871380000  0.0000000000
C  1.1689180000  0.9653680000  0.0000000000
H  1.3672040000  -1.5026580000  0.9152100000
H  1.3672040000  -1.5026580000  -0.9152100000
H  -1.1054590000  -1.6337950000  0.9176940000
H  -1.1054590000  -1.6337950000  -0.9176940000
H  -1.7894910000  0.9349430000  -0.9278640000
H  -1.7894910000  0.9349430000  0.9278640000
H  2.0011740000  1.6651620000  0.0000000000