11
charge=0, multiplicity=1, basis=def2-QZVPPD, AUX_BASIS_CORR=rimp2-def2-QZVPPD, SCF_ALGORITHM=GDM, xc_grid=000099000590, mem_total=3750, num_basis=513, num_pairs=127019, num_threads=1
C  -1.4454890000  0.5984990000  0.0187400000
C  -1.3736430000  -0.7593110000  -0.0107910000
N  1.0219920000  -1.0838450000  -0.1214660000
N  1.2644100000  0.1414290000  0.0194600000
C  0.7367120000  1.2264820000  0.0509150000
H  -1.6139970000  1.1573640000  -0.8926310000
H  -1.6477870000  1.1228290000  0.9412070000
H  -1.4013270000  -1.3059700000  -0.9397180000
H  -1.4491890000  -1.3436460000  0.8948040000
H  1.5074240000  -1.6285580000  0.5919310000
H  1.0945780000  2.2008660000  -0.2347340000