14
charge=0, multiplicity=1, basis=def2-QZVPPD, AUX_BASIS_CORR=rimp2-def2-QZVPPD, SCF_ALGORITHM=GDM, xc_grid=000099000590, mem_total=3750, num_basis=642, num_pairs=179793, num_threads=1
C  0.0000000000  2.8743980000  -0.3234850000
H  0.0000000000  3.3851170000  0.6316980000
H  0.0000000000  3.4921410000  -1.2102360000
C  0.0000000000  1.5399510000  -0.3980360000
H  0.0000000000  1.0755850000  -1.3770150000
C  0.0000000000  0.6740470000  0.7606210000
H  0.0000000000  1.1787680000  1.7209530000
C  0.0000000000  -0.6740470000  0.7606210000
H  0.0000000000  -1.1787680000  1.7209530000
C  0.0000000000  -1.5399510000  -0.3980360000
H  0.0000000000  -1.0755850000  -1.3770150000
C  0.0000000000  -2.8743980000  -0.3234850000
H  0.0000000000  -3.3851170000  0.6316980000
H  0.0000000000  -3.4921410000  -1.2102360000