16
charge=0, multiplicity=1, basis=def2-QZVPPD, AUX_BASIS_CORR=rimp2-def2-QZVPPD, SCF_ALGORITHM=GDM, xc_grid=000099000590, mem_total=3750, num_basis=648, num_pairs=169026, num_threads=1
H  -1.7106900000  -0.5796090000  0.0031100000
H  -0.5796090000  1.7106900000  -0.0031100000
H  2.0817570000  1.9494740000  -0.8235440000
H  -2.0817570000  -1.9494740000  -0.8235440000
H  -1.9494740000  2.0817570000  0.8235440000
H  1.7106900000  0.5796090000  0.0031100000
H  0.5796090000  -1.7106900000  -0.0031100000
H  1.9494740000  -2.0817570000  0.8235440000
N  -1.5966910000  1.5966910000  0.0063450000
N  -1.5966910000  -1.5966910000  -0.0063450000
N  1.5966910000  1.5966910000  -0.0063450000
N  1.5966910000  -1.5966910000  0.0063450000
H  2.0842360000  1.9654450000  0.8022820000
H  -1.9654450000  2.0842360000  -0.8022820000
H  -2.0842360000  -1.9654450000  0.8022820000
H  1.9654450000  -2.0842360000  -0.8022820000