10
charge=0, multiplicity=1, basis=def2-QZVPPD, AUX_BASIS_CORR=rimp2-def2-QZVPPD, SCF_ALGORITHM=GDM, xc_grid=000099000590, mem_total=3750, num_basis=450, num_pairs=100801, num_threads=1
H  -0.8868150000  1.2420170000  -1.1405820000
C  0.0000000000  0.7846760000  -0.6986250000
C  0.0000000000  -0.7846760000  -0.6986250000
C  0.0000000000  0.6675830000  0.8124570000
C  0.0000000000  -0.6675830000  0.8124570000
H  0.8868150000  -1.2420170000  -1.1405820000
H  0.0000000000  -1.4111490000  1.5981680000
H  0.8868150000  1.2420170000  -1.1405820000
H  -0.8868150000  -1.2420170000  -1.1405820000
H  0.0000000000  1.4111490000  1.5981680000