12
charge=0, multiplicity=1, basis=def2-QZVPPD, AUX_BASIS_CORR=rimp2-def2-QZVPPD, SCF_ALGORITHM=GDM, xc_grid=000099000590, mem_total=3750, num_basis=549, num_pairs=147104, num_threads=1
C  1.3135880000  0.7176530000  0.1216750000
C  1.3553920000  -0.6575810000  0.0113810000
O  -0.7002360000  -1.1707840000  -0.2074390000
N  -1.2246040000  -0.0808860000  0.2436030000
C  -0.7763930000  1.0793570000  -0.2333160000
H  1.3923860000  1.1799500000  1.0967370000
H  1.6547980000  1.3302660000  -0.7018830000
H  1.4114910000  -1.2871560000  0.8855310000
H  1.6045090000  -1.1317560000  -0.9250130000
H  -1.5115430000  -0.0989060000  1.2216710000
H  -0.6243550000  1.1300300000  -1.2989880000
H  -1.1086980000  1.9734690000  0.2777950000