12
charge=0, multiplicity=1, basis=def2-QZVPPD, AUX_BASIS_CORR=rimp2-def2-QZVPPD, SCF_ALGORITHM=GDM, xc_grid=000099000590, mem_total=3750, num_basis=576, num_pairs=152346, num_threads=1
C  1.6836471000  0.6105785000  0.0000000000
C  1.6836471000  -0.6105785000  0.0000000000
C  -0.3130471000  -1.7633704000  0.0000000000
C  -1.3706000000  -1.1527919000  0.0000000000
C  -1.3706000000  1.1527919000  0.0000000000
C  -0.3130471000  1.7633704000  0.0000000000
H  2.1448223000  1.5689895000  0.0000000000
H  2.1448223000  -1.5689895000  0.0000000000
H  0.2863736000  -2.6419654000  0.0000000000
H  -2.4311959000  -1.0729759000  0.0000000000
H  -2.4311959000  1.0729759000  0.0000000000
H  0.2863736000  2.6419654000  0.0000000000