10
charge=0, multiplicity=1, basis=def2-QZVPPD, AUX_BASIS_CORR=rimp2-def2-QZVPPD, SCF_ALGORITHM=GDM, xc_grid=000099000590, mem_total=3750, num_basis=450, num_pairs=96270, num_threads=1
C  0.6002100000  1.7421590000  0.0000000000
C  0.6002100000  0.4082040000  0.0000000000
C  -0.6002100000  -0.4082040000  0.0000000000
H  1.5456410000  -0.1256480000  0.0000000000
H  -1.5456410000  0.1256480000  0.0000000000
C  -0.6002100000  -1.7421590000  0.0000000000
H  0.3249930000  -2.3052660000  0.0000000000
H  1.5196300000  2.3103080000  0.0000000000
H  -0.3249930000  2.3052660000  0.0000000000
H  -1.5196300000  -2.3103080000  0.0000000000