5
charge=0, multiplicity=1, basis=def2-QZVPPD, AUX_BASIS_CORR=rimp2-def2-QZVPPD, SCF_ALGORITHM=GDM, xc_grid=000099000590, mem_total=3750, num_basis=255, num_pairs=32838, num_threads=1
N  0.0000000000  0.0000000000  1.2870250000
N  0.0000000000  0.0000000000  0.1553950000
C  0.0000000000  0.0000000000  -1.1362030000
H  0.0000000000  0.9505110000  -1.6398620000
H  0.0000000000  -0.9505110000  -1.6398620000