12
charge=0, multiplicity=1, basis=def2-QZVPPD, AUX_BASIS_CORR=rimp2-def2-QZVPPD, SCF_ALGORITHM=GDM, xc_grid=000099000590, mem_total=3750, num_basis=576, num_pairs=158509, num_threads=1
C  -1.2797608000  0.0000000000  -0.6723207000
C  -1.1948914000  0.0000000000  0.6825489000
B  0.0000000000  0.0000000000  -1.4931833000
N  0.0000000000  0.0000000000  1.3275112000
C  1.1948914000  0.0000000000  0.6825489000
C  1.2797608000  0.0000000000  -0.6723207000
H  0.0000000000  0.0000000000  -2.6888907000
H  2.2802929000  0.0000000000  -1.0904151000
H  2.0567974000  0.0000000000  1.3407333000
H  0.0000000000  0.0000000000  2.3328861000
H  -2.0567974000  0.0000000000  1.3407333000
H  -2.2802929000  0.0000000000  -1.0904151000