8
charge=0, multiplicity=1, basis=def2-QZVPPD, AUX_BASIS_CORR=rimp2-def2-QZVPPD, SCF_ALGORITHM=GDM, xc_grid=000099000590, mem_total=3750, num_basis=354, num_pairs=62299, num_threads=1
N  0.0000000000  0.0000000000  0.3431820000
H  0.0000000000  0.0000000000  1.3557200000
C  0.0000000000  1.2214930000  -0.1845430000
H  0.0000000000  1.3328690000  -1.2547660000
H  0.0000000000  2.0621440000  0.4830260000
C  0.0000000000  -1.2214930000  -0.1845430000
H  0.0000000000  -1.3328690000  -1.2547660000
H  0.0000000000  -2.0621440000  0.4830260000