6
charge=0, multiplicity=3, basis=def2-QZVPPD, AUX_BASIS_CORR=rimp2-def2-QZVPPD, SCF_ALGORITHM=GDM, xc_grid=000099000590, mem_total=3750, num_basis=261, num_pairs=34212, num_threads=1
C  0.0002900002  -1.1422873015  0.0000000000
H  -1.0559573251  -1.3847351499  0.0000000000
H  0.5201674772  -1.4073892279  0.9124497469
H  0.5201674772  -1.4073892279  -0.9124497469
H  0.0115599828  0.1600988724  0.0000000000
O  0.0002900002  1.3616418547  0.0000000000