3
charge=0, multiplicity=2, basis=def2-QZVPPD, AUX_BASIS_CORR=rimp2-def2-QZVPPD, SCF_ALGORITHM=GDM, xc_grid=000099000590, mem_total=3750, num_basis=159, num_pairs=13029, num_threads=1
N  -0.0624418570  0.6594924383  0.0000000000
N  -0.0624418570  -0.5187090647  0.0000000000
H  0.8741955236  -0.9854762073  0.0000000000