7
charge=-1, multiplicity=1, basis=def2-QZVPPD, AUX_BASIS_CORR=rimp2-def2-QZVPPD, SCF_ALGORITHM=GDM, xc_grid=000099000590, mem_total=3750, num_basis=327, num_pairs=52270, num_threads=1
C  -1.2979977070  -0.3895183770  -0.0000340000
O  -0.4772231559  0.7280208921  0.0000539999
H  -2.3519229914  -0.0802322670  -0.0086390303
H  -1.1408532311  -1.0358221307  -0.8781008517
H  -1.1531777693  -1.0275140479  0.8863613085
H  0.5105803729  0.3711601599  0.0002430003
F  1.7490154763  -0.1905170391  -0.0000100000