8
charge=0, multiplicity=1, basis=def2-QZVPPD, AUX_BASIS_CORR=rimp2-def2-QZVPPD, SCF_ALGORITHM=GDM, xc_grid=000099000590, mem_total=3750, num_basis=324, num_pairs=53089, num_threads=1
C  -0.7630947601  0.0000000000  0.0000000000
C  0.7630947601  0.0000000000  0.0000000000
H  1.1583107886  -0.4436420968  -0.9140954881
H  -1.1583107886  -1.0133268059  -0.0746399218
H  1.1583107886  -0.5698127700  0.8412542398
H  1.1583107886  1.0134538084  0.0728481276
H  -1.1583107886  0.4420201686  0.9148839623
H  -1.1583107886  0.5713050498  -0.8402435113