6
charge=-1, multiplicity=1, basis=def2-QZVPPD, AUX_BASIS_CORR=rimp2-def2-QZVPPD, SCF_ALGORITHM=GDM, xc_grid=000099000590, mem_total=3750, num_basis=294, num_pairs=42216, num_threads=1
F  1.8236506355  0.0002219999  0.0000770001
C  0.0002360004  -0.0003870000  -0.0002140003
H  0.0001559999  -0.3051860447  1.0250374984
H  0.0003789999  1.0398809202  -0.2489641370
H  -0.0000030000  -0.7365565211  -0.7762077724
F  -1.8238675982  0.0002430003  0.0000810001