7
charge=0, multiplicity=3, basis=def2-QZVPPD, AUX_BASIS_CORR=rimp2-def2-QZVPPD, SCF_ALGORITHM=GDM, xc_grid=000099000590, mem_total=3750, num_basis=291, num_pairs=42178, num_threads=1
C  -1.1995760304  -0.0111260046  -0.0000300000
N  1.4007163028  0.1298622136  0.0000150000
H  -1.4266618633  -0.5129320366  0.9330559090
H  -1.4199095616  -0.5913820346  -0.8881446359
H  -1.5202362762  1.0228043704  -0.0457830397
H  0.1889263323  0.1268961751  0.0010010023
H  1.5703387782  -0.8876683763  -0.0000530003