6
charge=0, multiplicity=2, basis=def2-QZVPPD, AUX_BASIS_CORR=rimp2-def2-QZVPPD, SCF_ALGORITHM=GDM, xc_grid=000099000590, mem_total=3750, num_basis=261, num_pairs=34345, num_threads=1
H  0.0004500002  2.0009673481  0.0000000000
F  -0.0000350000  0.7624809145  0.0000000000
C  -0.0000350000  -0.9061684130  0.0000000000
H  1.0537612395  -1.1415729122  0.0000000000
H  -0.5268451649  -1.1423560945  0.9123544950
H  -0.5268451649  -1.1423560945  -0.9123544950