3
charge=0, multiplicity=3, basis=def2-QZVPPD, AUX_BASIS_CORR=rimp2-def2-QZVPPD, SCF_ALGORITHM=GDM, xc_grid=000099000590, mem_total=3750, num_basis=178, num_pairs=15989, num_threads=1
Cl  0.0188200301  -0.8173036775  0.0000000000
H  -0.4704883170  0.5694793883  0.0000000000
O  0.0188200301  1.6655800995  0.0000000000