6
charge=0, multiplicity=2, basis=def2-QZVPPD, AUX_BASIS_CORR=rimp2-def2-QZVPPD, SCF_ALGORITHM=GDM, xc_grid=000099000590, mem_total=3750, num_basis=261, num_pairs=34462, num_threads=1
N  -1.1508176387  -0.0439320306  -0.1025587843
O  1.1791868310  -0.0926959787  -0.0102900104
H  -1.3031836440  -0.5476402432  0.7665714547
H  -1.3389136919  0.9358076307  0.0918540577
H  -0.0306869887  -0.1538339430  -0.3531840087
H  1.2950078555  0.8147530432  0.2949909158