10
charge=0, multiplicity=2, basis=def2-QZVPPD, AUX_BASIS_CORR=rimp2-def2-QZVPPD, SCF_ALGORITHM=GDM, xc_grid=000099000590, mem_total=3750, num_basis=420, num_pairs=86335, num_threads=1
C  -0.4721324707  0.6459349172  -0.0000430000
C  -1.3826184409  -0.3638850310  -0.0000020000
H  -0.2320442237  1.1645762472  -0.9172652599
H  -0.2323421505  1.1647614592  0.9171700080
H  -1.7271287053  -0.8098105277  0.9225199900
H  -1.7269382015  -0.8101333258  -0.9224353216
C  1.6120167783  -0.2421890807  0.0000350000
H  2.1951806902  0.6686736636  -0.0012689988
H  1.5894262016  -0.8096200239  -0.9186305372
H  1.5902464263  -0.8075985668  0.9199693556