7
charge=-1, multiplicity=1, basis=def2-QZVPPD, AUX_BASIS_CORR=rimp2-def2-QZVPPD, SCF_ALGORITHM=GDM, xc_grid=000099000590, mem_total=3750, num_basis=327, num_pairs=51836, num_threads=1
F  1.8506175081  -0.0131790006  -0.0001280000
C  0.0908570878  0.0105859792  0.0002690004
H  0.0409070418  1.0795480468  -0.0117490050
H  0.0371630069  -0.5280130591  -0.9229433318
H  0.0374860167  -0.5074629898  0.9351302838
O  -1.8928035184  0.1032662943  -0.0001180002
H  -2.1738230965  -0.8151128837  0.0000390000