3
charge=0, multiplicity=2, basis=def2-QZVPPD, AUX_BASIS_CORR=rimp2-def2-QZVPPD, SCF_ALGORITHM=GDM, xc_grid=000099000590, mem_total=3750, num_basis=142, num_pairs=10405, num_threads=1
P  0.0000000000  0.0000000000  0.1156569795
H  0.0000000000  1.0201320253  -0.8674273466
H  0.0000000000  -1.0201320253  -0.8674273466