5
charge=0, multiplicity=1, basis=def2-QZVPPD, AUX_BASIS_CORR=rimp2-def2-QZVPPD, SCF_ALGORITHM=GDM, xc_grid=000099000590, mem_total=3750, num_basis=241, num_pairs=29482, num_threads=1
C  0.0000000000  0.0000000000  -0.1499169730
Cl  0.0000000000  0.0000000000  1.6328018023
H  -0.5139977996  -0.8902703039  -0.4942949431
H  -0.5139977996  0.8902703039  -0.4942949431
H  1.0279955992  0.0000000000  -0.4942949431