8
charge=0, multiplicity=2, basis=def2-QZVPPD, AUX_BASIS_CORR=rimp2-def2-QZVPPD, SCF_ALGORITHM=GDM, xc_grid=000099000590, mem_total=3750, num_basis=324, num_pairs=52066, num_threads=1
C  -1.2607489204  -0.0000060000  0.0122909883
N  1.3132538871  -0.0000050000  -0.1367822645
H  -1.5839862594  0.9085391270  -0.4847443521
H  -1.4636725201  -0.0045730016  1.0773043353
H  -1.5847482747  -0.9038823672  -0.4927000029
H  0.0431079958  -0.0000640003  -0.1516918335
H  1.4804580224  0.8055771097  0.4677514123
H  1.4805585661  -0.8055241920  0.4678080343