7
charge=0, multiplicity=2, basis=def2-QZVPPD, AUX_BASIS_CORR=rimp2-def2-QZVPPD, SCF_ALGORITHM=GDM, xc_grid=000099000590, mem_total=3750, num_basis=291, num_pairs=42905, num_threads=1
C  0.7946072653  0.0000060000  -0.0223949928
C  -0.6953706558  0.0001700003  -0.0004600000
H  -1.1033980654  0.8895945815  -0.4810559867
H  1.3484759248  -0.9240493122  0.0484850188
H  -1.0860410517  -0.0133270115  1.0246459072
H  -1.1038266990  -0.8767196991  -0.5035740662
H  1.3493861096  0.9234460501  0.0486330296