6
charge=-1, multiplicity=1, basis=def2-QZVPPD, AUX_BASIS_CORR=rimp2-def2-QZVPPD, SCF_ALGORITHM=GDM, xc_grid=000099000590, mem_total=3750, num_basis=294, num_pairs=41869, num_threads=1
F  0.0000000000  0.0000000000  -1.7913713525
C  0.0000000000  0.0000000000  -0.3656170282
H  -0.5117911305  0.8864482409  -0.0175866767
H  -0.5117911305  -0.8864482409  -0.0175866767
H  1.0235822610  0.0000000000  -0.0175866767
F  0.0000000000  0.0000000000  2.2097484107