10
charge=0, multiplicity=3, basis=def2-QZVPPD, AUX_BASIS_CORR=rimp2-def2-QZVPPD, SCF_ALGORITHM=GDM, xc_grid=000099000590, mem_total=3750, num_basis=420, num_pairs=85250, num_threads=1
C  -1.3949853132  -0.4496609589  0.0007030014
C  -0.4357462431  0.7140611963  0.0020270029
N  1.9275704637  -0.3783522078  0.0030360010
H  -1.2000893324  -1.1209508748  -0.8356872952
H  -1.3220964389  -1.0278844720  0.9217738500
H  -2.4287119020  -0.1053523110  -0.0893341156
H  -0.4176880695  1.3084807083  -0.9072003086
H  -0.4411274465  1.3290974539  0.8974687390
H  0.8285010681  0.1805928489  -0.0285610191
H  2.4725912795  0.4980732687  0.0039100007