7
charge=-1, multiplicity=1, basis=def2-QZVPPD, AUX_BASIS_CORR=rimp2-def2-QZVPPD, SCF_ALGORITHM=GDM, xc_grid=000099000590, mem_total=3750, num_basis=327, num_pairs=50350, num_threads=1
F  1.8990531017  -0.0764571165  -0.0054040110
C  0.4894132830  0.1054840761  0.0067680183
H  0.0013039986  -0.7861668882  -0.3611550056
H  0.1719429176  0.2983580706  1.0232435875
H  0.2497441443  0.9474706972  -0.6308851163
O  -2.1694468006  -0.0731428794  -0.0023200030
H  -3.0953694003  0.1806970969  -0.0046240037