4
charge=0, multiplicity=2, basis=def2-QZVPPD, AUX_BASIS_CORR=rimp2-def2-QZVPPD, SCF_ALGORITHM=GDM, xc_grid=000099000590, mem_total=3750, num_basis=165, num_pairs=13987, num_threads=1
O  -0.3010642831  -0.1080489982  -0.0000080000
H  -0.4279440537  0.8515679044  0.0000160000
H  1.0154858491  -0.1003669321  0.0001189998
H  1.8209677069  0.1131873093  -0.0000730000