3
charge=0, multiplicity=2, basis=def2-QZVPPD, mem_total=3750, AUX_BASIS_CORR=rimp2-def2-QZVPPD, SCF_ALGORITHM=GDM, xc_grid=000099000590, num_basis=165, num_pairs=13690, num_threads=1
H  0.0000000000  0.0000000000  -2.2312758704
F  0.0000000000  0.0000000000  -0.6162163229
F  0.0000000000  0.0000000000  0.8641358641