5
charge=0, multiplicity=2, basis=def2-QZVPPD, AUX_BASIS_CORR=rimp2-def2-QZVPPD, SCF_ALGORITHM=GDM, xc_grid=000099000590, mem_total=3750, num_basis=208, num_pairs=21957, num_threads=1
P  0.2174288772  0.0000880001  -0.1112489331
H  0.2466103566  1.0346685243  0.8521658747
H  0.2626613610  -1.0250586655  0.8616222721
H  -1.2664164088  -0.0109520111  -0.1506260705
H  -2.5042889967  0.0000290000  0.1055750946