6
charge=0, multiplicity=1, basis=def2-QZVPPD, AUX_BASIS_CORR=rimp2-def2-QZVPPD, SCF_ALGORITHM=GDM, xc_grid=000099000590, mem_total=3750, num_basis=261, num_pairs=34660, num_threads=1
C  -0.0464230267  0.6630696765  0.0000000000
O  -0.0464230267  -0.7550618495  0.0000000000
H  -1.0869565283  0.9759404332  0.0000000000
H  0.8605903765  -1.0570421384  0.0000000000
H  0.4381450036  1.0715945128  0.8895416638
H  0.4381450036  1.0715945128  -0.8895416638