3
charge=0, multiplicity=2, basis=def2-QZVPPD, AUX_BASIS_CORR=rimp2-def2-QZVPPD, SCF_ALGORITHM=GDM, xc_grid=000099000590, mem_total=3750, num_basis=162, num_pairs=13485, num_threads=1
H  -1.5208659972  1.3888309818  0.0000000000
C  0.1086332099  0.5493283186  0.0000000000
O  0.1086332099  -0.5856034191  0.0000000000