43
charge=0, multiplicity=1, basis=def2-QZVPP, mem_total=120000, AUX_BASIS_CORR=rimp2-def2-QZVPPD, SCF_ALGORITHM=GDM, xc_grid=000099000590, num_basis=1965, num_pairs=1013131, num_threads=32
C  1.8886660000  -0.1222990000  0.1271500000
C  2.5994890000  0.9567560000  -0.2005050000
C  -1.7119460000  -0.1149210000  0.5259340000
N  -1.6075850000  0.2408510000  1.7857420000
N  -1.5503610000  0.5442650000  2.8635930000
C  -3.0650770000  -0.3078640000  -0.0225250000
C  -4.1913790000  -0.0593290000  0.7683210000
C  -3.2520390000  -0.7415320000  -1.3378140000
C  -5.4670430000  -0.2410500000  0.2608270000
H  -4.0825200000  0.2810510000  1.7912140000
C  -4.5339630000  -0.9191410000  -1.8355470000
H  -2.3931350000  -0.9355980000  -1.9617350000
C  -5.6471450000  -0.6724470000  -1.0455800000
H  -6.3240420000  -0.0422730000  0.8928660000
H  -4.6586880000  -1.2563580000  -2.8575430000
H  -6.6445860000  -0.8143030000  -1.4426130000
C  2.1860940000  2.3486790000  -0.2103610000
C  0.8351030000  2.8891360000  0.2141810000
C  2.9649110000  3.3349050000  -0.6686530000
C  1.0523470000  4.4141510000  0.2438750000
H  0.5145090000  2.4992500000  1.1796940000
H  0.0718370000  2.6010690000  -0.5172270000
C  2.2826740000  4.6716450000  -0.6479920000
H  3.9636260000  3.1862350000  -1.0632250000
H  1.2792120000  4.7239750000  1.2663170000
H  1.9951930000  4.9644690000  -1.6653030000
C  -0.4450160000  -0.2557900000  -0.1818820000
C  2.3634020000  -1.5141140000  0.0812290000
C  3.3261230000  -1.9167960000  -0.8450190000
C  1.8537140000  -2.4580750000  0.9730510000
C  3.7845650000  -3.2235550000  -0.8609440000
H  3.6944630000  -1.2092800000  -1.5768670000
C  2.3110510000  -3.7665190000  0.9528230000
H  1.1036180000  -2.1595230000  1.6940690000
C  3.2805760000  -4.1539360000  0.0388580000
H  4.5267150000  -3.5221410000  -1.5914490000
H  1.9090250000  -4.4859920000  1.6558960000
H  3.6349000000  -5.1773050000  0.0203830000
O  0.5986330000  0.0321560000  0.6460750000
O  -0.3101170000  -0.5637780000  -1.3336960000
H  2.9212820000  5.4712680000  -0.2643510000
H  0.1716780000  4.9713420000  -0.0769940000
H  3.6237770000  0.7738460000  -0.5040700000