31
charge=0, multiplicity=2, basis=def2-QZVPP, mem_total=30000, AUX_BASIS_CORR=rimp2-def2-QZVPPD, SCF_ALGORITHM=GDM, xc_grid=000099000590, num_basis=1362, num_pairs=589627, num_threads=8
C  -2.4120980000  0.4007440000  0.0089760000
C  -1.4086950000  1.3940190000  0.0456820000
C  -0.0662460000  1.2550400000  -0.5090800000
H  -1.6428570000  2.3251460000  0.5530920000
C  0.8655240000  2.4299700000  -0.5676410000
H  0.0545200000  0.5240040000  -1.2995370000
C  1.1588580000  1.3438390000  0.4190740000
H  0.5003340000  3.3726670000  -0.1785060000
H  1.5152800000  2.5227940000  -1.4284740000
C  2.2822140000  0.3898870000  0.2519960000
H  0.9187660000  1.5689750000  1.4512190000
C  -2.2000130000  -0.8887370000  -0.5369140000
C  -3.6971170000  0.6762190000  0.5385960000
C  -4.7008140000  -0.2684490000  0.5138620000
C  -4.4698090000  -1.5290170000  -0.0358590000
C  -3.2124700000  -1.8272340000  -0.5562100000
C  2.8055130000  0.0631750000  -0.9996210000
C  2.8301280000  -0.2259870000  1.3761940000
C  3.8683640000  -1.1384830000  1.2575430000
C  4.3788780000  -1.4561290000  0.0071290000
C  3.8413660000  -0.8504250000  -1.1209360000
H  2.4043220000  0.5246020000  -1.8946990000
H  2.4350040000  0.0146240000  2.3568330000
H  4.2787340000  -1.6032630000  2.1461660000
H  5.1891450000  -2.1684080000  -0.0886830000
H  4.2327760000  -1.0891150000  -2.1027860000
H  -3.0227330000  -2.8079100000  -0.9766110000
H  -1.2266530000  -1.1506720000  -0.9309890000
H  -3.8847530000  1.6548600000  0.9661460000
H  -5.6745710000  -0.0284800000  0.9243630000
H  -5.2588160000  -2.2704280000  -0.0542780000