29
charge=0, multiplicity=1, basis=def2-QZVPP, mem_total=30000, AUX_BASIS_CORR=rimp2-def2-QZVPPD, SCF_ALGORITHM=GDM, xc_grid=000099000590, num_basis=1275, num_pairs=583299, num_threads=8
C  -2.5914920000  -1.9192140000  0.0792740000
C  -2.0983170000  -1.3779740000  1.4186930000
C  -1.0190530000  -0.3472430000  1.2629200000
C  -0.7098870000  0.2241160000  0.1056280000
C  -1.4349210000  -0.0858410000  -1.1798470000
C  -2.7682730000  -0.7828550000  -0.9215410000
H  -3.5269760000  -2.4659180000  0.2158130000
H  -1.8605340000  -2.6328130000  -0.3155960000
H  -1.7264340000  -2.1906600000  2.0491970000
H  -2.9290410000  -0.9283100000  1.9760760000
H  -1.6001610000  0.8357980000  -1.7460550000
H  -0.8006990000  -0.7250570000  -1.8049830000
H  -3.1781690000  -1.1539360000  -1.8632790000
H  -3.4852010000  -0.0564000000  -0.5254790000
C  0.4259620000  1.2453630000  -0.0115140000
C  1.1259710000  1.4402350000  1.2660690000
C  -0.1330880000  2.5450450000  -0.4290630000
N  1.6933740000  1.5890350000  2.2499530000
N  -0.5766630000  3.5352990000  -0.7980130000
C  1.4759900000  0.8159690000  -1.0917210000
C  2.0389310000  -0.4947290000  -0.8140990000
C  2.4853390000  -1.5751410000  -0.5573890000
C  3.0344960000  -2.8843720000  -0.2378490000
H  3.4468060000  -3.3608930000  -1.1292210000
H  3.8322590000  -2.7995260000  0.5022130000
H  2.2619400000  -3.5392130000  0.1697270000
H  0.9762370000  0.8242470000  -2.0616590000
H  2.2600920000  1.5747420000  -1.1291470000
H  -0.4770360000  -0.0725480000  2.1614430000