50
charge=0, multiplicity=2, basis=def2-QZVPP, mem_total=120000, AUX_BASIS_CORR=rimp2-def2-QZVPPD, SCF_ALGORITHM=GDM, xc_grid=000099000590, num_basis=2080, num_pairs=1303131, num_threads=32
P  1.8561670000  -0.3049640000  -0.3334130000
O  1.3376600000  -1.0428120000  -1.5096200000
N  1.5123220000  1.3471490000  -0.5070910000
N  3.5081270000  -0.2561480000  -0.0481950000
N  1.2500140000  -0.9153430000  1.0886610000
C  0.1953310000  -1.9203630000  1.0729240000
H  -0.0717580000  -2.1580050000  0.0469110000
H  0.5390100000  -2.8336320000  1.5720230000
H  -0.6964430000  -1.5553010000  1.5875180000
C  1.6593530000  -0.4803140000  2.4098970000
H  0.8504630000  0.0499810000  2.9246820000
H  2.5248050000  0.1762170000  2.3497650000
H  1.9362390000  -1.3459840000  3.0222540000
C  1.9257140000  2.3475380000  0.4625620000
H  2.1585150000  3.2802670000  -0.0576950000
H  1.1416750000  2.5560340000  1.1971250000
H  2.8209530000  2.0156270000  0.9848460000
C  0.5503160000  1.7526910000  -1.4653700000
H  0.7645010000  2.7527300000  -1.8517000000
H  0.4483710000  1.0163010000  -2.2576940000
H  -0.5601110000  1.8976810000  -1.0224970000
C  4.1524310000  -1.4745400000  0.4311210000
H  3.4987910000  -2.0064470000  1.1188780000
H  4.4073440000  -2.1493880000  -0.3944690000
H  5.0721400000  -1.2114420000  0.9596580000
C  4.3507460000  0.4765940000  -0.9878000000
H  4.5939350000  -0.1272730000  -1.8698940000
H  3.8507170000  1.3835710000  -1.3203410000
H  5.2834860000  0.7554310000  -0.4911640000
C  -3.0866290000  -2.6603800000  -0.7923070000
C  -2.4867190000  -1.7929930000  -1.6912930000
C  -2.3023960000  -0.4562760000  -1.3605100000
C  -2.6997170000  0.0315710000  -0.1228480000
C  -3.3094050000  -0.8480950000  0.7727310000
C  -3.5046850000  -2.1799330000  0.4428920000
H  -3.2298920000  -3.7029940000  -1.0496150000
H  -2.1487040000  -2.1548470000  -2.6546700000
H  -1.8444940000  0.2176470000  -2.0692200000
H  -3.6372060000  -0.4944310000  1.7437130000
H  -3.9813190000  -2.8460200000  1.1527050000
C  -2.4635360000  1.4928700000  0.2616430000
O  -1.8954450000  2.2376770000  -0.7765790000
C  -3.8101290000  2.1966220000  0.5096100000
H  -4.3567820000  1.6993830000  1.3124900000
H  -3.6355390000  3.2368920000  0.7866140000
H  -4.4161300000  2.1675050000  -0.3958120000
C  -1.5853730000  1.5764570000  1.5171550000
H  -0.6342830000  1.0736070000  1.3384810000
H  -1.3985430000  2.6243270000  1.7582570000
H  -2.0649990000  1.0998060000  2.3735680000