35
charge=0, multiplicity=2, basis=def2-QZVPP, AUX_BASIS_CORR=rimp2-def2-QZVPPD, SCF_ALGORITHM=GDM, xc_grid=000099000590, mem_total=60000, num_basis=1617, num_pairs=909527, num_threads=16
C  -0.7993040000  1.2108490000  2.0773770000
C  -1.6774680000  1.2402200000  1.0103620000
C  -2.0811540000  0.0000040000  0.4350760000
C  -1.6774740000  -1.2402140000  1.0103590000
C  -0.7993100000  -1.2108500000  2.0773740000
C  -0.3462850000  -0.0000020000  2.5963080000
H  -0.4647920000  2.1437470000  2.5156930000
H  -0.4648030000  -2.1437510000  2.5156880000
H  0.3497140000  -0.0000050000  3.4265520000
O  -2.8488990000  0.0000080000  -0.6275970000
H  -2.2218790000  0.0000000000  -1.5626340000
C  1.7188020000  -0.6944110000  -0.5281940000
C  1.7188040000  0.6944070000  -0.5281970000
C  2.7037340000  1.4151410000  0.1147570000
C  3.7000170000  0.6966320000  0.7695300000
C  3.7000160000  -0.6966330000  0.7695330000
C  2.7037310000  -1.4151430000  0.1147630000
C  0.5422350000  -1.1803940000  -1.2909210000
C  0.5422370000  1.1803890000  -1.2909260000
H  2.6940210000  2.4975370000  0.1051260000
H  4.4906240000  1.2269860000  1.2859030000
H  4.4906220000  -1.2269860000  1.2859090000
H  2.6940170000  -2.4975390000  0.1051370000
O  0.2162010000  2.2940420000  -1.5803200000
O  0.2161980000  -2.2940480000  -1.5803100000
N  -0.1684360000  -0.0000030000  -1.6463260000
O  -1.2482280000  -0.0000030000  -2.3752400000
C  -2.2170100000  -2.5150020000  0.4468080000
H  -1.8939530000  -3.3679390000  1.0434100000
H  -3.3079160000  -2.4878460000  0.4213770000
H  -1.8772010000  -2.6652450000  -0.5799380000
C  -2.2169970000  2.5150100000  0.4468130000
H  -3.3079030000  2.4878610000  0.4213820000
H  -1.8939350000  3.3679450000  1.0434170000
H  -1.8771870000  2.6652530000  -0.5799330000