24
charge=0, multiplicity=1, basis=def2-QZVPP, mem_total=15000, AUX_BASIS_CORR=rimp2-def2-QZVPPD, SCF_ALGORITHM=GDM, xc_grid=000099000590, num_basis=1071, num_pairs=435599, num_threads=4
N  -1.8261350000  1.4118240000  1.1290520000
C  -2.1340590000  0.7660580000  -0.1471980000
C  -2.4814120000  -0.7118850000  0.1003910000
O  -2.5943620000  -1.5120840000  -0.7868710000
O  -2.6778560000  -1.0127760000  1.3795100000
C  -1.0541810000  0.9067200000  -1.2333700000
H  -1.3658790000  0.3070550000  -2.0891420000
H  -1.0257580000  1.9504570000  -1.5547420000
C  0.3143680000  0.4862040000  -0.7615220000
C  1.2474810000  1.4314000000  -0.3376440000
H  1.0013770000  2.4866360000  -0.3967880000
C  2.4939650000  1.0595710000  0.1410430000
H  3.2176160000  1.7972140000  0.4633010000
C  2.8292050000  -0.2856380000  0.2010620000
C  1.9179770000  -1.2448670000  -0.2243350000
H  2.1797060000  -2.2974220000  -0.1869540000
C  0.6748320000  -0.8588700000  -0.7002800000
H  -0.0269550000  -1.6155380000  -1.0296480000
O  4.0641960000  -0.6068600000  0.6784200000
H  -3.0614770000  1.2021690000  -0.5295740000
H  -2.4978830000  -0.1806050000  1.8703970000
H  -2.1799990000  2.3573210000  1.1814340000
H  -0.8257130000  1.4321380000  1.3013720000
H  4.1830260000  -1.5605940000  0.6696180000