41
charge=0, multiplicity=1, basis=def2-QZVPP, mem_total=60000, AUX_BASIS_CORR=rimp2-def2-QZVPPD, SCF_ALGORITHM=GDM, xc_grid=000099000590, num_basis=1689, num_pairs=885030, num_threads=16
C  0.4734830000  -1.8119280000  -0.0562080000
C  1.5676330000  -1.4973790000  0.6376010000
C  -0.8833970000  -1.5144110000  0.3840310000
C  -1.9900580000  -1.8342750000  -0.2877320000
C  -2.9905110000  1.3038140000  -0.3158690000
C  -3.3978650000  -1.6566620000  0.2012210000
C  2.2491910000  1.3623200000  -0.6947650000
C  1.3811960000  1.9582230000  0.1237410000
H  1.8490430000  0.7303610000  -1.4852230000
C  3.7360730000  1.4310750000  -0.6132750000
C  -0.0424700000  1.7223610000  0.0225930000
C  -0.9865920000  2.1960660000  0.8446600000
C  -2.3900350000  1.7989990000  0.7663750000
C  -4.3479430000  0.6845870000  -0.3343130000
C  -4.3055300000  -0.8070190000  -0.7080490000
H  -3.3843640000  -1.2334320000  1.2100570000
H  -3.8422040000  -2.6541630000  0.2926980000
H  -5.3276090000  -1.1934690000  -0.6694250000
H  -3.9788880000  -0.9123780000  -1.7479920000
H  -4.9929910000  1.2010140000  -1.0540360000
H  -4.8147100000  0.7959770000  0.6493430000
C  2.9663510000  -1.9262210000  0.3099980000
H  1.4463860000  -0.9478550000  1.5695210000
C  4.4026150000  0.0501310000  -0.6524910000
H  4.0364460000  1.9640680000  0.2943490000
H  4.1205810000  2.0138670000  -1.4592700000
C  4.0882230000  -0.8921860000  0.5224340000
H  5.4836940000  0.2096150000  -0.6911520000
H  4.1409890000  -0.4456880000  -1.5940760000
H  3.0074930000  -2.3159990000  -0.7122830000
H  3.1905450000  -2.7801470000  0.9615060000
H  3.8731030000  -0.3032490000  1.4210070000
H  4.9990750000  -1.4524920000  0.7474870000
H  0.5752990000  -2.3530600000  -0.9956560000
H  1.7397600000  2.5906580000  0.9331720000
H  -0.9778580000  -1.0151680000  1.3453900000
H  -1.8863850000  -2.3170410000  -1.2594260000
H  -0.6973710000  2.8475210000  1.6653310000
H  -0.3380280000  1.0268400000  -0.7562350000
H  -2.9596940000  1.8607990000  1.6913440000
H  -2.4445050000  1.2784490000  -1.2561450000