24
charge=0, multiplicity=1, basis=def2-QZVPP, mem_total=30000, AUX_BASIS_CORR=rimp2-def2-QZVPPD, SCF_ALGORITHM=GDM, xc_grid=000099000590, num_basis=1098, num_pairs=450469, num_threads=8
C  1.4785860000  1.2699970000  0.0000000000
C  1.4785860000  -1.2699970000  0.0000000000
N  1.6890250000  0.6468730000  1.1743810000
N  1.6890250000  -0.6468730000  1.1743810000
C  1.3468910000  -2.7554310000  0.0000000000
H  0.8196130000  -3.0845730000  -0.8936900000
H  2.3390250000  -3.2127720000  0.0000000000
H  0.8196130000  -3.0845730000  0.8936890000
C  1.3468910000  2.7554310000  0.0000010000
H  2.3390240000  3.2127720000  0.0000000000
H  0.8196120000  3.0845730000  -0.8936880000
H  0.8196120000  3.0845730000  0.8936900000
C  -3.2825930000  0.7004800000  -0.0000010000
C  -2.0975350000  1.4491980000  0.0000010000
C  -0.9950690000  0.6231200000  0.0000010000
C  -0.9950690000  -0.6231210000  0.0000000000
C  -2.0975350000  -1.4491990000  -0.0000010000
C  -3.2825930000  -0.7004810000  -0.0000010000
H  -4.2315370000  1.2245800000  -0.0000010000
H  -2.0947360000  2.5308760000  0.0000010000
H  -2.0947360000  -2.5308760000  -0.0000020000
H  -4.2315370000  -1.2245800000  -0.0000020000
N  1.6890240000  0.6468740000  -1.1743800000
N  1.6890250000  -0.6468730000  -1.1743810000