3
charge=0, multiplicity=2, basis=def2-QZVPP, AUX_BASIS_CORR=rimp2-def2-QZVPPD, SCF_ALGORITHM=GDM, xc_grid=000099000590, mem_total=3750, num_basis=144, num_pairs=10722, num_threads=1
O  0.0550770000  -0.6030170000  0.0000000000
O  0.0550770000  0.7122720000  0.0000000000
H  -0.8812270000  -0.8740420000  0.0000000000