11
charge=0, multiplicity=2, basis=def2-QZVPP, AUX_BASIS_CORR=rimp2-def2-QZVPPD, SCF_ALGORITHM=GDM, xc_grid=000099000590, mem_total=3750, num_basis=519, num_pairs=126930, num_threads=1
C  0.7955090000  1.2123230000  0.0001440000
C  -0.7214690000  1.2370910000  -0.0000680000
C  1.0398120000  -0.3326980000  0.0001120000
N  -0.0046380000  -1.0822470000  -0.0000350000
C  -1.1389410000  -0.2415340000  -0.0001420000
O  -2.2641080000  -0.6413300000  -0.0002780000
O  2.2565180000  -0.6579350000  0.0002490000
H  1.2621910000  1.6401200000  0.8859390000
H  1.2624450000  1.6402070000  -0.8854760000
H  -1.1403330000  1.7192180000  -0.8828130000
H  -1.1405840000  1.7192090000  0.8825610000