11
charge=0, multiplicity=2, basis=def2-QZVPP, AUX_BASIS_CORR=rimp2-def2-QZVPPD, SCF_ALGORITHM=GDM, xc_grid=000099000590, mem_total=3750, num_basis=519, num_pairs=126930, num_threads=1
C  0.7214690000  1.2370900000  0.0000010000
C  -0.7955010000  1.2123170000  -0.0000020000
C  1.1389480000  -0.2415250000  -0.0000010000
N  0.0046290000  -1.0822540000  -0.0000010000
C  -1.0398170000  -0.3326960000  0.0000000000
O  -2.2565210000  -0.6579250000  0.0000010000
O  2.2641050000  -0.6413370000  0.0000000000
H  1.1404660000  1.7192150000  0.8826850000
H  1.1404710000  1.7192210000  -0.8826770000
H  -1.2623060000  1.6401610000  -0.8857100000
H  -1.2623100000  1.6401650000  0.8857030000