16
charge=0, multiplicity=1, basis=def2-QZVPP, mem_total=7500, AUX_BASIS_CORR=rimp2-def2-QZVPPD, SCF_ALGORITHM=GDM, xc_grid=000099000590, num_basis=777, num_pairs=247685, num_threads=2
C  -0.2985810000  1.3531580000  0.0009390000
C  0.8512050000  0.5572170000  0.0011910000
C  0.5939910000  -0.8197410000  -0.0002560000
N  -0.5831250000  -1.4559560000  -0.0001130000
C  -1.6240690000  -0.6373450000  -0.0045860000
N  -1.4996330000  0.7032630000  -0.0000680000
N  2.2101000000  0.8053330000  0.0022540000
C  2.7561130000  -0.3677060000  0.0016560000
N  1.8297840000  -1.3960730000  0.0005240000
N  -2.8739070000  -1.1620490000  -0.0404990000
O  -0.5847200000  2.5913630000  -0.0004600000
H  3.8173620000  -0.5653030000  0.0020020000
H  2.0127000000  -2.3866900000  -0.0030600000
H  -1.7866410000  1.9666500000  -0.0050930000
H  -3.6604240000  -0.5696810000  0.1607960000
H  -2.9597150000  -2.1510100000  0.1206840000