33
charge=1, multiplicity=2, basis=def2-QZVPP, AUX_BASIS_CORR=rimp2-def2-QZVPPD, SCF_ALGORITHM=GDM, xc_grid=000099000590, mem_total=30000, num_basis=1449, num_pairs=645172, num_threads=8
N  0.4280420000  3.1645530000  -0.5915750000
C  0.5237720000  0.7682500000  2.1612230000
H  1.2714640000  2.6537290000  -0.3265890000
C  1.7684000000  0.4356610000  1.4350700000
H  0.0542490000  -0.0019260000  2.7659900000
H  0.5080960000  1.7694950000  2.5782000000
O  2.3890890000  1.2828140000  0.8095870000
N  2.1344800000  -0.8743190000  1.4076150000
H  1.5151920000  -1.5621410000  1.8032950000
C  3.1495910000  -1.3003120000  0.4838210000
C  2.6690900000  -1.2762710000  -0.9557340000
H  3.4784600000  -2.3113360000  0.7261860000
H  4.0192550000  -0.6468200000  0.5564680000
O  1.5465930000  -1.0338830000  -1.3146460000
O  3.6639090000  -1.5764940000  -1.7894160000
H  3.3330190000  -1.5393790000  -2.6985640000
C  -0.6111550000  2.4681430000  -0.5500740000
C  -0.7362960000  1.0305870000  -0.1872380000
O  -1.8310130000  3.0192290000  -0.8160740000
N  -2.0823170000  0.5522690000  -0.2688560000
H  -0.2967100000  0.9228520000  1.0499090000
H  -0.0215870000  0.3690990000  -0.6762810000
C  -2.4271240000  -0.6951430000  -0.0068570000
C  -3.9071180000  -1.0740500000  -0.2075240000
O  -1.6756390000  -1.5902750000  0.3771110000
N  -3.9443650000  -2.5284990000  0.1271640000
H  -4.2288950000  -0.9185690000  -1.2354760000
H  -4.5622840000  -0.5194390000  0.4620110000
H  -4.2027830000  -3.1199220000  -0.6626590000
H  -4.5523750000  -2.7524640000  0.9145910000
H  -2.9197590000  -2.6969520000  0.3888550000
H  -2.7774370000  1.2475530000  -0.5231790000
H  -1.6872670000  3.9558770000  -1.0118080000