39
charge=0, multiplicity=2, basis=def2-QZVPP, AUX_BASIS_CORR=rimp2-def2-QZVPPD, SCF_ALGORITHM=GDM, xc_grid=000099000590, mem_total=60000, num_basis=1629, num_pairs=848409, num_threads=16
H  -2.1273690000  3.1753680000  0.8703430000
C  -1.0919140000  2.5029350000  -1.4766810000
H  -1.5796060000  1.6500360000  -1.9584530000
H  -0.2602990000  2.8507000000  -2.0896960000
N  -0.6202140000  2.1621970000  -0.1466380000
C  0.5540330000  1.4055910000  -0.0115440000
C  1.2342320000  1.3514020000  1.2130230000
C  1.0943260000  0.7082020000  -1.0870360000
C  2.3841510000  0.6065260000  1.3539430000
H  0.8678990000  1.9134570000  2.0613630000
C  2.2633690000  -0.0341820000  -0.9531750000
H  0.5894020000  0.7082480000  -2.0423960000
C  2.9102710000  -0.0988310000  0.2722420000
H  2.9071720000  0.5670840000  2.3009270000
H  2.6417720000  -0.5668460000  -1.8141420000
H  -1.8220060000  3.3069590000  -1.3889540000
O  -3.2568860000  0.4854730000  0.0996540000
C  -1.5734030000  2.2356750000  0.8777070000
H  -1.1851100000  1.9869760000  1.8592620000
H  -2.4729940000  1.3695540000  0.6117020000
O  4.0485320000  -0.8033350000  0.5128680000
O  -2.3809880000  -0.3252380000  -0.6130930000
C  -2.1707790000  -1.5936970000  0.0593640000
C  -1.2246130000  -2.3201930000  -0.8839290000
C  -3.5040070000  -2.3176010000  0.1833050000
C  -1.5263030000  -1.3669340000  1.4198120000
H  -0.5712490000  -0.8506320000  1.3143130000
H  -1.3446860000  -2.3258680000  1.9097090000
H  -2.1826930000  -0.7761430000  2.0588580000
H  -3.9507660000  -2.4601110000  -0.8024270000
H  -4.1934320000  -1.7353500000  0.7940250000
H  -3.3623840000  -3.2961030000  0.6476120000
H  -1.6730140000  -2.4149280000  -1.8744980000
H  -1.0137920000  -3.3207690000  -0.5017000000
H  -0.2828780000  -1.7775160000  -0.9737000000
C  4.6103660000  -1.5415230000  -0.5512970000
H  5.4965960000  -2.0262030000  -0.1481460000
H  4.9013610000  -0.8883340000  -1.3800210000
H  3.9159410000  -2.3043820000  -0.9173420000