31
charge=0, multiplicity=2, basis=def2-QZVPP, mem_total=30000, AUX_BASIS_CORR=rimp2-def2-QZVPPD, SCF_ALGORITHM=GDM, xc_grid=000099000590, num_basis=1362, num_pairs=583960, num_threads=8
C  -2.2456870000  0.0877250000  -0.1615780000
C  -0.9054790000  0.6883610000  -0.2435440000
C  -0.5216370000  1.8351250000  0.3080090000
C  0.8635470000  2.4307500000  0.2276720000
C  1.8404040000  1.6980190000  -0.6313910000
H  1.2521700000  2.5235160000  1.2500880000
H  0.7684940000  3.4591520000  -0.1360770000
C  2.5518280000  0.5472610000  -0.2379310000
H  1.9957860000  2.0611340000  -1.6414370000
C  -2.3953570000  -1.2683200000  -0.4562580000
C  -3.3844150000  0.8133410000  0.1975650000
C  -4.6220450000  0.1973670000  0.2801850000
C  -4.7532010000  -1.1572130000  -0.0025530000
C  -3.6339950000  -1.8874620000  -0.3745300000
C  2.3854080000  -0.0543250000  1.0345560000
C  3.4698130000  -0.0628660000  -1.1299640000
C  4.1744980000  -1.1915610000  -0.7705070000
C  3.9956490000  -1.7628250000  0.4893790000
C  3.0962210000  -1.1847320000  1.3832430000
H  1.6781300000  0.3691800000  1.7359660000
H  3.6128250000  0.3775330000  -2.1103860000
H  4.8710570000  -1.6366180000  -1.4711550000
H  4.5494730000  -2.6500860000  0.7699290000
H  2.9489600000  -1.6283630000  2.3609040000
H  -3.7245390000  -2.9426110000  -0.6035070000
H  -1.5230210000  -1.8436220000  -0.7459970000
H  -3.3048900000  1.8744860000  0.3993990000
H  -5.4931910000  0.7789490000  0.5578660000
H  -5.7229130000  -1.6359550000  0.0590780000
H  -1.2308960000  2.4170920000  0.8910480000
H  -0.1707480000  0.1043370000  -0.7898350000