18
charge=0, multiplicity=2, basis=def2-QZVPP, AUX_BASIS_CORR=rimp2-def2-QZVPPD, SCF_ALGORITHM=GDM, xc_grid=000099000590, mem_total=7500, num_basis=783, num_pairs=264897, num_threads=2
C  -0.8899100000  1.2888410000  -0.2770780000
C  -1.5809570000  0.1615480000  0.3899740000
O  -0.5315650000  -0.6926810000  0.8722420000
C  0.7346130000  -0.0413900000  0.8196630000
C  0.5144430000  1.2040440000  -0.0346780000
C  -2.5182510000  -0.6413310000  -0.4972410000
H  -2.1481290000  0.5372560000  1.2570730000
H  -1.9946580000  -0.9910070000  -1.3884280000
H  -3.3682410000  -0.0302250000  -0.8068420000
H  -2.8930940000  -1.5038510000  0.0547510000
C  1.7610880000  -0.9963840000  0.2375880000
H  1.0480240000  0.2697260000  1.8247970000
O  1.3235940000  -1.5297980000  -0.9927130000
H  1.9697350000  -1.7926000000  0.9608940000
H  2.6831030000  -0.4461680000  0.0461310000
H  0.4827190000  -1.9676080000  -0.8246900000
O  1.3914940000  1.9716130000  -0.3945500000
H  -1.3737970000  2.0794310000  -0.8328830000