6
charge=0, multiplicity=1, basis=def2-QZVPP, AUX_BASIS_CORR=rimp2-def2-QZVPPD, SCF_ALGORITHM=GDM, xc_grid=000099000590, mem_total=3750, num_basis=247, num_pairs=30868, num_threads=1
S  0.6622500000  -0.0869640000  -0.0000180000
C  -1.1552220000  0.0199200000  0.0000220000
H  -1.5238920000  0.5212280000  0.8927910000
H  -1.5239230000  0.5213550000  -0.8926630000
H  -1.5228380000  -1.0048380000  -0.0000450000
H  0.9059920000  1.2341610000  0.0000740000