41
charge=0, multiplicity=1, basis=def2-QZVPP, AUX_BASIS_CORR=rimp2-def2-QZVPPD, SCF_ALGORITHM=GDM, xc_grid=000099000590, mem_total=120000, num_basis=1770, num_pairs=1108785, num_threads=32
C  2.7487270000  0.5057100000  1.0145280000
C  1.2737230000  0.8786860000  0.8735130000
C  0.3750570000  -0.2423310000  0.2489760000
C  1.1130370000  -0.7650220000  -0.9742360000
C  2.5082310000  -1.2736940000  -0.7240980000
C  3.3718970000  -0.0941250000  -0.2447130000
C  -0.9437910000  0.4997910000  -0.0622110000
C  -0.5268180000  1.9536610000  -0.2893270000
C  0.9505840000  2.1052230000  0.0278620000
O  -1.2443160000  2.8351760000  -0.6736450000
C  0.0334830000  -1.3112870000  1.3054890000
C  -1.0739850000  -0.6584570000  2.1488490000
C  -1.8451480000  0.2735680000  1.2106940000
N  -3.1193940000  -0.2561270000  0.6679700000
O  -3.1910150000  0.4862570000  -0.5493410000
C  -1.9500300000  0.0436520000  -1.1403390000
C  -2.1570590000  -1.4696140000  -1.1559320000
C  -2.9912000000  -1.6304510000  0.1363490000
O  0.6654260000  -0.6684510000  -2.0932860000
C  4.8144540000  -0.5220330000  -0.0083910000
H  0.8890310000  1.0719170000  1.8788650000
H  1.4880930000  2.0969250000  -0.9268730000
H  1.1524100000  3.0603440000  0.5121910000
H  2.8560620000  -0.2212760000  1.8276670000
H  3.3126200000  1.3903680000  1.3247740000
H  0.8991690000  -1.5877800000  1.9096360000
H  -0.3244900000  -2.2248580000  0.8283910000
H  2.8948490000  -1.7016320000  -1.6490520000
H  2.5006310000  -2.0487370000  0.0497270000
H  3.3664890000  0.6608170000  -1.0391830000
H  4.8692570000  -1.2885300000  0.7701980000
H  5.4268150000  0.3241790000  0.3113320000
H  5.2586710000  -0.9339850000  -0.9168630000
H  -1.7273660000  -1.3864010000  2.6302620000
H  -0.6334010000  -0.0687010000  2.9534240000
H  -1.2332900000  -2.0393670000  -1.1634110000
H  -2.7295550000  -1.7518960000  -2.0387670000
H  -2.5493170000  -2.2919280000  0.8785620000
H  -3.9981330000  -1.9865610000  -0.0724570000
H  -1.8264560000  0.5200990000  -2.1054880000
H  -2.1040610000  1.2163700000  1.6893660000