63
charge=0, multiplicity=1, basis=def2-QZVPP, mem_total=240000, AUX_BASIS_CORR=rimp2-def2-QZVPPD, SCF_ALGORITHM=GDM, xc_grid=000099000590, num_basis=2673, num_pairs=1712613, num_threads=64
O  -6.5989130000  0.3920720000  1.3215400000
C  -5.9776650000  0.6894400000  0.0706930000
C  -4.5383910000  1.1517560000  0.3873230000
C  -3.6253130000  0.1372440000  -0.3069800000
C  -4.4800280000  -1.1371200000  -0.3786980000
C  -5.8290860000  -0.5716630000  -0.8023740000
C  -2.2291920000  -0.0993810000  0.2803320000
C  -1.8159840000  -1.6231940000  0.1480130000
C  -2.4763660000  -2.3176490000  -1.0208130000
C  -3.7739510000  -2.1326440000  -1.2418770000
C  -1.2363980000  0.8123340000  -0.3669900000
C  -0.4253570000  1.6458390000  0.2761060000
C  -0.3282260000  -1.7798630000  0.1532420000
C  0.3849780000  -2.1557340000  1.2082020000
C  1.8621710000  -2.1796960000  1.2320810000
O  2.4016220000  -2.0005300000  0.0171020000
C  3.8330820000  -1.8084910000  -0.1013010000
C  4.4233260000  -3.0116830000  -0.8162780000
C  4.2220230000  -4.3251930000  -0.0707780000
C  0.5811580000  2.4593660000  -0.4511150000
C  1.6552260000  3.1078240000  0.4017050000
C  1.1368130000  4.4732310000  0.8719540000
O  2.5028800000  -2.3172610000  2.2449720000
C  4.0305720000  -0.5043910000  -0.8550560000
C  3.4741460000  0.7131410000  -0.1247180000
C  3.4958520000  1.9653980000  -0.9972120000
C  3.0026230000  3.2443450000  -0.3222940000
O  3.9740760000  3.7619150000  0.5873020000
O  0.5436010000  2.6072170000  -1.6549420000
H  -4.3487540000  2.1763240000  0.0661350000
H  -4.4144530000  1.1157840000  1.4717560000
H  -6.5535450000  1.4657670000  -0.4417840000
H  -6.6663340000  -1.2597190000  -0.6663190000
H  -5.7956360000  -0.2894960000  -1.8601920000
H  -4.5834180000  -1.5390830000  0.6390770000
H  -4.2957700000  -2.6473570000  -2.0417630000
H  -1.8853190000  -2.9997160000  -1.6221180000
H  0.1984490000  -1.5282280000  -0.7620660000
H  -0.0787520000  -2.4052380000  2.1558460000
H  4.2375300000  -1.7382790000  0.9100540000
H  3.5475330000  -0.5948480000  -1.8339330000
H  5.1004800000  -0.3714110000  -1.0429040000
H  2.4471420000  0.4947240000  0.1790500000
H  4.0455150000  0.8651330000  0.7996130000
H  4.5144450000  2.1601930000  -1.3458160000
H  2.8839340000  1.7902080000  -1.8841950000
H  2.9071210000  4.0154310000  -1.0879810000
H  1.8059170000  2.4781870000  1.2860520000
H  -1.1643210000  0.7781160000  -1.4526540000
H  -3.4947600000  0.4516860000  -1.3487600000
H  3.9835850000  -3.0728760000  -1.8169600000
H  5.4920120000  -2.8204930000  -0.9535080000
H  3.1612950000  -4.5590810000  0.0352090000
H  4.6532060000  -4.2812410000  0.9315380000
H  4.6920450000  -5.1516430000  -0.6069400000
H  0.2245610000  4.3750270000  1.4643260000
H  0.9174300000  5.1090890000  0.0115320000
H  1.8953580000  4.9647220000  1.4800770000
H  4.1845880000  3.0829390000  1.2349450000
H  -7.5154570000  0.1493460000  1.1653840000
H  -0.4312360000  1.6993660000  1.3604590000
H  -2.2052560000  -2.0938450000  1.0575710000
H  -2.2413350000  0.1139070000  1.3524690000