10
charge=0, multiplicity=1, basis=def2-QZVPP, AUX_BASIS_CORR=rimp2-def2-QZVPPD, SCF_ALGORITHM=GDM, xc_grid=000099000590, mem_total=3750, num_basis=448, num_pairs=94921, num_threads=1
O  -0.0970660000  1.5057570000  0.0002040000
C  0.0781820000  0.3409560000  0.0000410000
C  -0.9539570000  -0.7493060000  -0.0000800000
C  -2.3753590000  -0.2092670000  0.0000470000
H  -0.7536990000  -1.3792570000  0.8706770000
H  -0.7537590000  -1.3790020000  -0.8710360000
H  -2.5627770000  0.4057370000  0.8805410000
H  -3.0873800000  -1.0353790000  -0.0000530000
H  -2.5628350000  0.4060010000  -0.8802510000
Cl  1.7649280000  -0.3152030000  -0.0000910000