52
charge=-1, multiplicity=1, basis=def2-QZVPP, mem_total=120000, AUX_BASIS_CORR=rimp2-def2-QZVPPD, SCF_ALGORITHM=GDM, xc_grid=000099000590, num_basis=2208, num_pairs=1354171, num_threads=32
C  4.6394850000  -1.7112550000  -0.2784480000
C  3.1385570000  -1.4890590000  -0.4653830000
H  2.5783190000  -2.2859590000  0.0205280000
H  2.8903970000  -1.5180680000  -1.5349280000
H  4.9403950000  -2.6662870000  -0.7213010000
H  4.8501030000  -1.7862010000  0.7952530000
C  2.7049810000  -0.1380620000  0.1072490000
C  1.2080830000  0.1442110000  -0.0284020000
C  3.5049080000  0.9767590000  -0.5812380000
C  3.0271630000  2.3394960000  -0.1741200000
C  1.8331840000  2.5573070000  0.3617810000
C  0.8177190000  1.4858930000  0.6442590000
C  0.5839870000  1.3878930000  2.1585200000
H  1.4670470000  0.9991110000  2.6700000000
H  -0.2506840000  0.7254940000  2.3895760000
H  0.3625510000  2.3776620000  2.5698490000
C  0.3261700000  -0.9686140000  0.5478680000
C  -1.0256220000  -1.0522650000  0.0551850000
O  0.7850520000  -1.6948410000  1.4244930000
C  -2.0548940000  -1.9248400000  0.6194940000
C  -1.5990340000  -0.3064060000  -1.0073310000
O  -1.1465830000  0.5715250000  -1.7524420000
O  -2.0530230000  -2.6395070000  1.6078510000
C  -3.0718090000  -0.7285100000  -1.1440610000
H  -3.2214330000  -1.0819520000  -2.1716530000
C  -4.0154460000  0.4615450000  -0.9082300000
C  -3.8403330000  1.0671000000  0.4879920000
H  -4.1483050000  0.3369620000  1.2436530000
H  -2.7764800000  1.2448070000  0.6590250000
C  -4.5986590000  2.3746340000  0.6965310000
H  -4.3177370000  3.1124620000  -0.0609070000
H  -4.3721780000  2.8032020000  1.6759660000
H  -5.6817200000  2.2380760000  0.6427890000
N  -3.1869420000  -1.8112000000  -0.1956590000
H  -4.0659140000  -2.0749770000  0.2199770000
C  -5.4651370000  0.0706000000  -1.1951260000
H  -6.1342700000  0.9331240000  -1.1618150000
H  -5.8330960000  -0.6553870000  -0.4620770000
H  -5.5560760000  -0.3816660000  -2.1862160000
H  -3.7034320000  1.2127060000  -1.6427170000
C  5.0056940000  0.7859450000  -0.3513730000
H  5.5654600000  1.5919290000  -0.8397660000
H  5.2131940000  0.8634750000  0.7230390000
C  5.4696180000  -0.5732050000  -0.8723200000
H  6.5333000000  -0.7220890000  -0.6577530000
H  5.3649770000  -0.5859420000  -1.9644430000
H  3.7006270000  3.1761660000  -0.3517020000
H  1.5502390000  3.5711520000  0.6385550000
H  -0.1230080000  1.7965150000  0.1795730000
H  0.9630360000  0.2586340000  -1.0872640000
H  2.9637880000  -0.1338600000  1.1731460000
H  3.3342410000  0.8769150000  -1.6650700000