4
charge=0, multiplicity=1, basis=def2-QZVPP, AUX_BASIS_CORR=rimp2-def2-QZVPPD, SCF_ALGORITHM=GDM, xc_grid=000099000590, mem_total=3750, num_basis=174, num_pairs=15557, num_threads=1
O  0.7069750000  0.1199890000  -0.0521100000
O  -0.7069760000  -0.1199900000  -0.0521080000
H  1.0277520000  -0.6603110000  0.4168730000
H  -1.0277510000  0.6603130000  0.4168730000