61
charge=1, multiplicity=1, basis=def2-QZVPP, mem_total=240000, AUX_BASIS_CORR=rimp2-def2-QZVPPD, SCF_ALGORITHM=GDM, xc_grid=000200000974, num_basis=2586, num_pairs=1744969, num_threads=64
C  0.0314390000  -2.5876450000  -0.7906790000
C  0.0444100000  -1.4160410000  1.5819020000
C  1.5058730000  -1.0504490000  1.3097700000
C  2.2279550000  -2.0594980000  0.4194630000
C  1.5032750000  -2.1891820000  -0.9173720000
H  1.5536770000  -0.0712520000  0.8320610000
H  2.0184870000  -0.9701970000  2.2705240000
H  2.2407320000  -3.0311910000  0.9169450000
H  1.5790000000  -1.2338860000  -1.4364260000
H  2.0019710000  -2.9360180000  -1.5384440000
N  -0.6071300000  -1.7560680000  0.2798150000
O  -1.8786260000  -1.6940450000  0.2421580000
C  -0.6786260000  -2.3146380000  -2.1159840000
H  -0.6120440000  -1.2645510000  -2.3997960000
H  -0.1807130000  -2.8915320000  -2.8953520000
H  -1.7238360000  -2.6194400000  -2.0872810000
C  -0.1456050000  -4.0753250000  -0.4466730000
H  -1.1908490000  -4.2932900000  -0.2249810000
H  0.1504430000  -4.6715020000  -1.3109010000
H  0.4624400000  -4.3921600000  0.3974840000
C  -0.6745950000  -0.2321230000  2.2190680000
H  -0.1796100000  0.0036410000  3.1612400000
H  -0.6221820000  0.6470800000  1.5805170000
H  -1.7175670000  -0.4621890000  2.4318180000
C  -0.0892990000  -2.6199910000  2.5331970000
H  0.2473540000  -2.3206470000  3.5264000000
H  -1.1316920000  -2.9318860000  2.6059190000
H  0.5062770000  -3.4755400000  2.2249330000
C  -2.6099980000  0.4002340000  -0.9865830000
H  -2.9397830000  -0.1253760000  -1.8827300000
H  -2.2648820000  -0.7137500000  -0.3380430000
O  -3.6274520000  0.9459760000  -0.2451250000
C  -1.3839280000  1.1165450000  -1.0090730000
H  -0.6249830000  0.7588910000  -1.6912730000
C  -1.1533550000  2.2125200000  -0.2292680000
H  -1.9871890000  2.5708280000  0.3673890000
C  0.0574550000  2.9773150000  -0.1437420000
C  0.0215810000  4.2063960000  0.5378870000
C  1.2744900000  2.5358170000  -0.6888380000
C  1.1590010000  4.9815450000  0.6465070000
H  -0.9121950000  4.5472160000  0.9701050000
C  2.4120820000  3.3049530000  -0.5626080000
H  1.3561890000  1.5747980000  -1.1770310000
C  2.3544180000  4.5310870000  0.0952180000
H  1.1217290000  5.9322550000  1.1625350000
H  3.3443040000  2.9325610000  -0.9652910000
H  3.2489610000  5.1350920000  0.1872330000
C  -4.8511770000  0.2878440000  -0.2947580000
O  -4.9758260000  -0.7305040000  -0.8986100000
C  -5.8785820000  1.0348060000  0.4826400000
H  -5.5404400000  1.1709690000  1.5107850000
H  -6.0197110000  2.0252750000  0.0467550000
H  -6.8149060000  0.4841960000  0.4645270000
N  3.6337400000  -1.7117040000  0.2345910000
C  4.0763970000  -0.5885240000  -0.3896860000
C  5.5717210000  -0.4236530000  -0.4725620000
H  5.8490900000  -0.2913860000  -1.5184600000
H  5.8508010000  0.4867130000  0.0594190000
H  6.1294390000  -1.2625700000  -0.0569850000
O  3.3122040000  0.2440480000  -0.8548520000
H  4.3234230000  -2.3524950000  0.5900370000