22
charge=0, multiplicity=2, basis=def2-QZVPP, AUX_BASIS_CORR=rimp2-def2-QZVPPD, SCF_ALGORITHM=GDM, xc_grid=000099000590, mem_total=15000, num_basis=957, num_pairs=347064, num_threads=4
C  0.8463780000  0.9318360000  -0.0000090000
C  -0.4837080000  1.2773690000  0.0000130000
C  -1.5068600000  0.2430710000  0.0000210000
C  -1.0740000000  -1.1504510000  0.0000050000
C  0.2570950000  -1.4420670000  -0.0000170000
C  1.2265020000  -0.4176960000  -0.0000240000
H  1.5948010000  1.7127280000  -0.0000160000
H  0.6098040000  -2.4666070000  -0.0000330000
O  2.5035780000  -0.8400310000  -0.0000460000
O  -2.7143770000  0.5395480000  0.0000460000
C  -2.1328660000  -2.2037050000  0.0000280000
H  -1.6966360000  -3.2026550000  -0.0001770000
H  -2.7796190000  -2.0950340000  0.8732010000
H  -2.7799110000  -2.0947830000  -0.8728930000
C  -0.9384370000  2.6995050000  0.0000500000
H  -1.5633660000  2.9008370000  0.8728080000
H  -0.0926070000  3.3875070000  -0.0001770000
H  -1.5637910000  2.9007500000  -0.8724200000
C  3.5500110000  0.1167730000  -0.0000750000
H  4.4745350000  -0.4548540000  -0.0001050000
H  3.5092730000  0.7440810000  0.8939230000
H  3.5092180000  0.7440860000  -0.8940670000