17
charge=0, multiplicity=1, basis=def2-QZVPP, AUX_BASIS_CORR=rimp2-def2-QZVPPD, SCF_ALGORITHM=GDM, xc_grid=000099000590, mem_total=15000, num_basis=834, num_pairs=283332, num_threads=4
C  0.5026140000  0.6945670000  0.0077930000
C  0.5026130000  -0.6945680000  0.0077930000
C  1.6776770000  -1.4155920000  0.0018730000
C  2.8706280000  -0.6960650000  -0.0086070000
C  2.8706280000  0.6960610000  -0.0086050000
C  1.6776780000  1.4155890000  0.0018770000
C  -0.9073750000  1.1768000000  0.0172920000
C  -0.9073760000  -1.1767980000  0.0173020000
H  1.6652090000  -2.4980390000  0.0015030000
H  3.8146830000  -1.2266510000  -0.0181480000
H  3.8146840000  1.2266470000  -0.0181450000
H  1.6652110000  2.4980370000  0.0015070000
O  -1.3419720000  -2.2910070000  -0.0283810000
O  -1.3419660000  2.2910110000  -0.0283790000
N  -1.6697510000  0.0000020000  0.1111550000
O  -3.0084990000  0.0000040000  -0.1518980000
H  -3.4545550000  -0.0000350000  0.7041550000