4
charge=0, multiplicity=1, basis=def2-QZVPP, AUX_BASIS_CORR=rimp2-def2-QZVPPD, SCF_ALGORITHM=GDM, xc_grid=000099000590, mem_total=3750, num_basis=174, num_pairs=15557, num_threads=1
H  0.8229810000  0.9027740000  0.4168630000
O  0.0000000000  0.7170850000  -0.0521080000
O  0.0000000000  -0.7170850000  -0.0521080000
H  -0.8229810000  -0.9027740000  0.4168630000