36
charge=1, multiplicity=1, basis=def2-QZVPP, AUX_BASIS_CORR=rimp2-def2-QZVPPD, SCF_ALGORITHM=GDM, xc_grid=000099000590, mem_total=60000, num_basis=1485, num_pairs=778353, num_threads=16
C  1.2038180000  1.3506060000  0.0411400000
C  1.2038270000  -1.3506020000  0.0411430000
C  -0.3218620000  -1.2485420000  0.1116630000
C  -0.8480620000  -0.0000050000  0.8188980000
C  -0.3218700000  1.2485360000  0.1116650000
H  -0.7355950000  -1.2682870000  -0.8969340000
H  -0.6725980000  -2.1455730000  0.6252960000
H  -0.5172480000  -0.0000070000  1.8595130000
H  -0.7356050000  1.2682810000  -0.8969310000
H  -0.6726090000  2.1455640000  0.6253010000
N  1.7704320000  0.0000030000  -0.4009150000
O  2.7237210000  0.0000060000  -1.0929560000
C  1.6368340000  2.3839510000  -0.9893710000
H  1.1503500000  3.3245690000  -0.7308170000
H  2.7134760000  2.5441470000  -0.9894450000
H  1.3164340000  2.1052960000  -1.9939570000
C  1.8518300000  1.6569340000  1.4033150000
H  2.9376010000  1.5648410000  1.3586310000
H  1.6138590000  2.6958270000  1.6328850000
H  1.4708500000  1.0399850000  2.2123810000
C  1.6368520000  -2.3839470000  -0.9893640000
H  2.7134960000  -2.5441350000  -0.9894350000
H  1.1503740000  -3.3245670000  -0.7308080000
H  1.3164520000  -2.1052970000  -1.9939510000
C  1.8518380000  -1.6569210000  1.4033200000
H  1.6138730000  -2.6958150000  1.6328930000
H  2.9376080000  -1.5648230000  1.3586390000
H  1.4708520000  -1.0399730000  2.2123830000
N  -2.3011180000  -0.0000130000  0.8722250000
C  -3.0929650000  -0.0000090000  -0.2453630000
C  -4.5777490000  0.0000110000  -0.0062940000
H  -5.0063100000  -0.8783950000  -0.4896100000
H  -4.8521890000  -0.0000350000  1.0483340000
H  -5.0062710000  0.8784860000  -0.4895210000
O  -2.6090890000  -0.0000210000  -1.3626080000
H  -2.7439920000  0.0000300000  1.7759910000