41
charge=0, multiplicity=2, basis=def2-QZVPP, AUX_BASIS_CORR=rimp2-def2-QZVPPD, SCF_ALGORITHM=GDM, xc_grid=000099000590, mem_total=60000, num_basis=1783, num_pairs=1008738, num_threads=16
C  -2.4973590000  -1.3981640000  0.3180650000
C  -2.1283160000  -1.6715690000  1.7414760000
S  -1.4749220000  -2.1465450000  -0.8784160000
C  -2.2971050000  -1.7616880000  -2.4435290000
H  -2.3084910000  -0.6888730000  -2.6304520000
H  -3.3117330000  -2.1580610000  -2.4631700000
H  -1.7114970000  -2.2496900000  -3.2214780000
C  -3.3620530000  -0.2230010000  0.0014220000
H  -3.9733740000  -0.3778960000  -0.8898230000
H  -2.7824920000  0.6954340000  -0.1609230000
H  -4.0435060000  -0.0344710000  0.8348790000
C  -1.2322270000  -0.5799890000  2.3824150000
H  -1.6337460000  -2.6436910000  1.8282740000
H  -3.0503200000  -1.7365270000  2.3311450000
C  0.1662100000  -0.6276600000  1.8513580000
H  -1.2126500000  -0.7435970000  3.4642700000
H  -1.6933820000  0.3923610000  2.2152650000
C  0.7195680000  0.1519290000  0.9179370000
C  2.0762780000  -0.1479320000  0.3902350000
C  0.0190450000  1.3138780000  0.3081240000
C  -0.1400530000  1.3688730000  -1.0774750000
C  -0.4843080000  2.3592740000  1.0783960000
C  -0.8139820000  2.4235310000  -1.6720400000
C  -1.3298080000  3.4516530000  -0.8919270000
C  -1.1572300000  3.4191720000  0.4842820000
H  -0.3378210000  2.3441000000  2.1516710000
H  0.2621840000  0.5669840000  -1.6843090000
H  -0.9358690000  2.4464140000  -2.7486650000
H  -1.8546230000  4.2778780000  -1.3561740000
H  -1.5415010000  4.2244640000  1.0990450000
C  2.4735980000  -1.4592010000  0.1289560000
C  2.9811130000  0.8842990000  0.1365580000
C  4.2569950000  0.6110520000  -0.3307770000
C  4.6474900000  -0.7003980000  -0.5698220000
C  3.7494700000  -1.7336680000  -0.3422290000
H  1.7641850000  -2.2647830000  0.2713150000
H  4.0379530000  -2.7583270000  -0.5450140000
H  2.6798890000  1.9097750000  0.3142710000
H  4.9494030000  1.4248940000  -0.5107330000
H  5.6425580000  -0.9140310000  -0.9411590000
H  0.7696480000  -1.4499840000  2.2278740000