15
charge=0, multiplicity=1, basis=def2-QZVPP, AUX_BASIS_CORR=rimp2-def2-QZVPPD, SCF_ALGORITHM=GDM, xc_grid=000099000590, mem_total=3750, num_basis=585, num_pairs=163528, num_threads=1
O  0.0320880000  -0.0000090000  1.4460680000
C  -0.0060340000  0.0000000000  0.0127230000
C  -1.4850890000  -0.0000630000  -0.3406960000
C  0.6806640000  -1.2568870000  -0.5151020000
C  0.6805510000  1.2569570000  -0.5150820000
H  0.2028090000  -2.1476550000  -0.1040600000
H  1.7367280000  -1.2711370000  -0.2295770000
H  0.6299180000  -1.3049190000  -1.6052530000
H  0.2026200000  2.1476750000  -0.1040190000
H  0.6297940000  1.3050070000  -1.6052320000
H  1.7366160000  1.2712950000  -0.2295630000
H  -1.9707000000  -0.8843390000  0.0750050000
H  -1.6244190000  -0.0000630000  -1.4235320000
H  -1.9707790000  0.8841640000  0.0750140000
H  0.9501570000  0.0000010000  1.7316150000