42
charge=1, multiplicity=1, basis=def2-QZVPP, AUX_BASIS_CORR=rimp2-def2-QZVPPD, SCF_ALGORITHM=GDM, xc_grid=000099000590, mem_total=120000, num_basis=1773, num_pairs=1066644, num_threads=32
C  -1.0010710000  -2.9424760000  -0.7996540000
C  -0.2595090000  -1.8968850000  0.0373670000
C  -2.3827040000  -1.4521950000  0.4930430000
C  -2.4921520000  -2.6179140000  -0.4966360000
H  -0.7474340000  -2.8838240000  -1.8604520000
H  -0.7189780000  -3.9391830000  -0.4622060000
H  -3.0566240000  -2.3286440000  -1.3816030000
H  -2.9999180000  -3.4644690000  -0.0359130000
C  -1.1184710000  -1.7972560000  1.2907600000
H  -0.8080420000  -1.0284320000  1.9964460000
H  -1.1782440000  -2.7544200000  1.8065340000
H  0.8149860000  -2.0068370000  0.1317060000
H  -3.2903820000  -1.2295360000  1.0456870000
N  -1.9695240000  -0.2442060000  -0.2644080000
N  -0.5819520000  -0.5646670000  -0.6428880000
C  0.2791280000  0.6804410000  -0.3899130000
C  1.7253230000  0.3478440000  -0.1565070000
C  2.2245870000  0.0315500000  1.1058090000
C  2.5909790000  0.3408840000  -1.2477040000
C  3.5618850000  -0.2956470000  1.2674850000
H  1.5794120000  0.0416790000  1.9752380000
C  3.9295290000  0.0131900000  -1.0869840000
H  2.2211210000  0.6089760000  -2.2318840000
C  4.4155460000  -0.3075990000  0.1718010000
H  3.9412370000  -0.5345680000  2.2529930000
H  4.5930160000  0.0188320000  -1.9423840000
H  5.4609330000  -0.5572650000  0.3024990000
C  -1.9491620000  1.0032760000  0.5447770000
H  -2.3711360000  0.7673790000  1.5220880000
C  -0.4807760000  1.4663760000  0.6733320000
H  -0.0772120000  1.2637230000  1.6629410000
C  -2.7155140000  2.1672040000  -0.1103990000
H  -3.2987850000  2.6806210000  0.6570260000
H  -3.4124590000  1.8058810000  -0.8654810000
C  -0.4951490000  2.9667610000  0.3491830000
H  -0.7197720000  3.5309840000  1.2567210000
H  0.4686160000  3.3216820000  -0.0202640000
C  -1.6407750000  3.1123230000  -0.6572000000
H  -1.9896700000  4.1399950000  -0.7504660000
H  -1.3231710000  2.7992120000  -1.6565590000
H  0.2023880000  1.2204190000  -1.3343950000
H  -0.5797150000  -0.7293500000  -1.6485600000