47
charge=0, multiplicity=1, basis=def2-QZVPP, mem_total=120000, AUX_BASIS_CORR=rimp2-def2-QZVPPD, SCF_ALGORITHM=GDM, xc_grid=000099000590, num_basis=1923, num_pairs=1014226, num_threads=32
C  -2.7744450000  -0.8126640000  0.8217240000
C  -2.7704080000  0.6740990000  1.2144840000
C  -1.5045530000  1.3055880000  0.7303490000
C  -0.6207210000  -2.0419200000  -1.0065350000
C  -2.9127250000  -1.0637740000  -0.6865770000
H  -3.6207670000  1.1732670000  0.7367330000
H  -1.8472240000  -1.2593430000  1.1921210000
H  -3.5924950000  -1.3154160000  1.3486680000
H  -2.4969020000  -0.1984060000  -1.2145620000
H  -2.3825060000  -3.1615580000  -0.5398460000
H  -2.3417250000  -2.5106380000  -2.1749390000
C  -2.0915390000  -2.2866520000  -1.1316720000
C  -1.4049470000  2.2858370000  -0.1633900000
C  0.2031480000  -2.6883410000  -0.1832760000
C  2.1336220000  -1.1411530000  -0.0103360000
C  1.6188360000  -2.3767570000  0.0215610000
C  -4.3777780000  -1.1997710000  -1.0925790000
H  -4.4848160000  -1.2786830000  -2.1770570000
H  -4.9649540000  -0.3392460000  -0.7614340000
H  -4.8214160000  -2.0947900000  -0.6460920000
C  -0.0853000000  2.8062920000  -0.5968400000
O  0.9590550000  2.3266240000  -0.2063510000
C  -0.1078720000  3.9640840000  -1.5613270000
C  3.5433880000  -0.7897450000  0.1680350000
C  3.8733520000  0.5094470000  0.1332310000
H  3.0634390000  1.2174550000  -0.0200550000
C  5.2271360000  1.1239970000  0.2842050000
H  5.4764420000  1.7181540000  -0.6005300000
H  6.0236380000  0.3965590000  0.4342520000
H  5.2382360000  1.8148040000  1.1331020000
C  4.5214750000  -1.9113280000  0.3785410000
H  5.5437810000  -1.5564860000  0.4872490000
H  4.4958800000  -2.6102520000  -0.4620330000
H  4.2689810000  -2.4815890000  1.2770600000
C  -2.8922060000  0.8358330000  2.7319690000
H  -2.0612860000  0.3400790000  3.2411080000
H  -2.8856550000  1.8878400000  3.0231040000
H  -3.8209990000  0.3866590000  3.0903760000
H  -0.6558290000  4.8040270000  -1.1258630000
H  -0.6353730000  3.6762400000  -2.4749780000
H  0.9077500000  4.2693590000  -1.8032640000
H  1.4656630000  -0.2976990000  -0.1647990000
H  2.2654550000  -3.2211820000  0.2405990000
H  -0.2176960000  -1.2387900000  -1.6207160000
H  -0.1926100000  -3.5258830000  0.3895440000
H  -2.2922770000  2.7296130000  -0.6054740000
H  -0.5779580000  0.9044920000  1.1391310000