16
charge=0, multiplicity=1, basis=def2-QZVPP, AUX_BASIS_CORR=rimp2-def2-QZVPPD, SCF_ALGORITHM=GDM, xc_grid=000099000590, mem_total=3750, num_basis=615, num_pairs=163768, num_threads=1
N  0.0000000000  -0.2692440000  -0.0686120000
C  -1.2185900000  0.5175730000  0.0219560000
C  1.2185900000  0.5175730000  0.0219570000
C  -2.4493770000  -0.3704480000  -0.0329060000
H  1.2290710000  1.2145670000  -0.8220670000
H  -1.2290710000  1.2145660000  -0.8220690000
H  -1.2454340000  1.1355820000  0.9362090000
C  2.4493770000  -0.3704480000  -0.0329070000
H  1.2454340000  1.1355810000  0.9362110000
H  -2.4597460000  -0.9535480000  -0.9552580000
H  2.4597460000  -0.9535460000  -0.9552600000
H  -3.3630380000  0.2254260000  0.0138280000
H  -2.4665670000  -1.0690090000  0.8086790000
H  2.4665670000  -1.0690110000  0.8086770000
H  3.3630380000  0.2254260000  0.0138290000
H  0.0000000000  -0.9868360000  0.6489120000