59
charge=1, multiplicity=1, basis=def2-QZVPP, mem_total=240000, AUX_BASIS_CORR=rimp2-def2-QZVPPD, SCF_ALGORITHM=GDM, xc_grid=000200000974, num_basis=2472, num_pairs=1686420, num_threads=64
C  -0.8324110000  -2.2017270000  -0.7950170000
C  -0.4839700000  -1.1401930000  1.6209240000
C  1.0069990000  -1.0909090000  1.2788930000
C  1.4507510000  -2.2219990000  0.3547520000
C  0.6849870000  -2.1181250000  -0.9605710000
H  1.2459390000  -0.1388190000  0.8021230000
H  1.5628940000  -1.1335940000  2.2175680000
H  1.2266500000  -3.1806710000  0.8263140000
H  0.9548950000  -1.1755240000  -1.4353740000
H  0.9894560000  -2.9200040000  -1.6361480000
N  -1.2713330000  -1.3226080000  0.3472540000
O  -2.5065920000  -1.0982290000  0.4063840000
C  -1.5093670000  -1.7153780000  -2.0742160000
H  -1.1592680000  -2.3322260000  -2.9018360000
H  -2.5931330000  -1.8094200000  -2.0203540000
H  -1.2419990000  -0.6837960000  -2.2990270000
C  -1.3081040000  -3.6351480000  -0.5071340000
H  -2.3708130000  -3.6446990000  -0.2638100000
H  -1.1574230000  -4.2367960000  -1.4042740000
H  -0.7608380000  -4.1085910000  0.3047430000
C  -0.9029760000  0.1550860000  2.3047530000
H  -0.6189970000  1.0211120000  1.7135370000
H  -1.9741540000  0.1783800000  2.5014190000
H  -0.3845480000  0.2172140000  3.2616860000
C  -0.8338220000  -2.3144150000  2.5522860000
H  -0.3566050000  -2.1449950000  3.5179880000
H  -1.9117260000  -2.3649830000  2.7088270000
H  -0.4938180000  -3.2765490000  2.1773890000
C  -3.1142780000  1.1454770000  -0.6974940000
H  -3.1135310000  0.7883390000  -1.7344070000
H  -2.8511480000  0.0486360000  -0.1201050000
O  -4.3195030000  1.5484670000  -0.2307960000
C  -5.4439200000  0.8130000000  -0.7092780000
H  -5.4813460000  0.8410010000  -1.8014810000
H  -6.3252440000  1.2986600000  -0.3003390000
C  -2.0042930000  1.9491620000  -0.2752790000
H  -2.1908910000  2.5683120000  0.5944910000
C  -0.7744310000  1.8879070000  -0.8401530000
H  -0.6366970000  1.2659050000  -1.7188140000
H  -5.4007870000  -0.2221370000  -0.3615830000
C  0.4005300000  2.6143560000  -0.4044800000
C  1.6196310000  2.3490530000  -1.0362830000
C  0.3671920000  3.5590170000  0.6350830000
C  2.7772320000  2.9953460000  -0.6378460000
H  1.6709710000  1.6065500000  -1.8211960000
C  1.5197370000  4.2100600000  1.0214300000
H  -0.5643060000  3.7985920000  1.1321520000
C  2.7289620000  3.9276710000  0.3868770000
H  3.7140570000  2.7595540000  -1.1247440000
H  1.4841260000  4.9445290000  1.8160530000
H  3.6312350000  4.4406810000  0.6965300000
N  2.8942150000  -2.2365310000  0.1496500000
H  3.4099560000  -3.0131330000  0.5283880000
C  3.5941890000  -1.2628690000  -0.4943980000
C  5.0850920000  -1.4642620000  -0.5752160000
H  5.5738810000  -0.6495850000  -0.0393060000
H  5.4229790000  -2.4144270000  -0.1620380000
H  5.3885910000  -1.3983010000  -1.6199640000
O  3.0492300000  -0.2829750000  -0.9754060000