34
charge=0, multiplicity=1, basis=def2-QZVPP, AUX_BASIS_CORR=rimp2-def2-QZVPPD, SCF_ALGORITHM=GDM, xc_grid=000099000590, mem_total=60000, num_basis=1479, num_pairs=687089, num_threads=16
N  -0.4757970000  1.7608280000  0.2278290000
C  0.7625230000  1.1173220000  0.1444570000
C  1.8842880000  1.7154980000  0.7352530000
C  3.1193290000  1.1074220000  0.7003840000
C  3.2806470000  -0.1291070000  0.0761940000
C  2.1818500000  -0.7350720000  -0.5085310000
C  0.9325580000  -0.1145700000  -0.4752510000
O  4.5426770000  -0.6517730000  0.0967420000
C  4.7463160000  -1.9028450000  -0.5192500000
C  -1.5790700000  1.3914020000  -0.6375690000
C  -2.2685060000  0.1140960000  -0.1854260000
C  -2.2846640000  -0.2653430000  1.1509860000
C  -2.9594910000  -1.4115260000  1.5481400000
C  -3.6251320000  -2.1922530000  0.6131270000
C  -3.6092580000  -1.8213350000  -0.7248690000
C  -2.9322200000  -0.6760690000  -1.1186360000
C  -2.5801800000  2.5444380000  -0.6732270000
H  4.5115200000  -1.8660200000  -1.5883100000
H  -4.1193340000  -2.4282290000  -1.4635710000
H  4.1440580000  -2.6852610000  -0.0455710000
H  5.8012980000  -2.1363040000  -0.3920250000
H  -2.9594230000  -1.7000550000  2.5926770000
H  -4.1478030000  -3.0888880000  0.9237330000
H  -2.9572200000  2.7478140000  0.3316660000
H  -3.4298870000  2.2922850000  -1.3073480000
H  -2.1149270000  3.4514910000  -1.0682940000
H  -1.7465800000  0.3371980000  1.8720650000
H  -2.9126980000  -0.3957460000  -2.1672560000
H  1.7752840000  2.6740190000  1.2318870000
H  0.0916960000  -0.6223630000  -0.9259350000
H  2.2679330000  -1.6952900000  -0.9975210000
H  3.9832900000  1.5748700000  1.1557860000
H  -0.3997800000  2.7532830000  0.3856860000
H  -1.2121960000  1.2232340000  -1.6610980000