13
charge=0, multiplicity=1, basis=def2-QZVPP, AUX_BASIS_CORR=rimp2-def2-QZVPPD, SCF_ALGORITHM=GDM, xc_grid=000099000590, mem_total=3750, num_basis=552, num_pairs=143631, num_threads=1
C  0.0372730000  -0.6936790000  1.1927700000
C  0.0372730000  0.6366090000  1.2376710000
H  0.1178600000  -1.3011170000  2.0850730000
C  -0.0983350000  1.4886560000  0.0000000000
H  0.1215960000  1.1233470000  2.2009970000
C  0.0372730000  0.6366090000  -1.2376710000
H  0.6600400000  2.2809190000  0.0000000000
H  -1.0632190000  2.0157230000  0.0000000000
C  0.0372730000  -0.6936790000  -1.1927700000
H  0.1215960000  1.1233470000  -2.2009970000
H  0.1178600000  -1.3011170000  -2.0850730000
H  0.1865860000  -2.3709960000  0.0000000000
N  -0.0809800000  -1.4024580000  0.0000000000