17
charge=0, multiplicity=1, basis=def2-QZVPP, AUX_BASIS_CORR=rimp2-def2-QZVPPD, SCF_ALGORITHM=GDM, xc_grid=000099000590, mem_total=7500, num_basis=726, num_pairs=222820, num_threads=2
C  1.3237070000  0.1610250000  0.1382530000
C  0.4235270000  1.1044600000  0.4002410000
N  0.0163160000  -1.4580640000  -0.6401240000
N  -0.9913080000  -0.9197790000  -0.4949330000
N  -1.4874910000  0.1940690000  -0.2122680000
C  -2.7066350000  0.2196790000  0.5839190000
H  -2.6049530000  -0.3443400000  1.5162700000
H  -2.9009980000  1.2641600000  0.8197160000
H  -3.5584120000  -0.1653670000  0.0192010000
H  0.0208500000  1.7173380000  1.1875930000
C  1.1808390000  1.2543500000  -0.8788500000
H  1.9499390000  2.0261950000  -0.9523280000
H  0.6766150000  1.0524910000  -1.8230500000
C  2.3867660000  -0.6742110000  0.7468270000
H  2.0417620000  -1.1272500000  1.6780790000
H  2.7009170000  -1.4717210000  0.0727020000
H  3.2624400000  -0.0568980000  0.9707510000