14
charge=-1, multiplicity=1, basis=def2-QZVPP, AUX_BASIS_CORR=rimp2-def2-QZVPPD, SCF_ALGORITHM=GDM, xc_grid=000099000590, mem_total=7500, num_basis=663, num_pairs=193114, num_threads=2
O  1.4078160000  1.8176040000  -0.0553240000
C  0.6978190000  0.7859110000  0.0515410000
C  1.3017440000  -0.5327830000  -0.0457010000
O  2.6429160000  -0.4724120000  -0.2822170000
O  0.7960210000  -1.6287270000  0.3450530000
C  -0.7437430000  0.8978870000  0.5329810000
H  0.6299260000  -0.0432410000  -1.2288680000
C  -1.8473100000  0.0112830000  -0.0394460000
H  -1.0505990000  1.9298240000  0.3839120000
H  -0.7147640000  0.7076260000  1.6140480000
O  -2.9080030000  0.4974670000  -0.3712170000
O  -1.6257980000  -1.2825320000  -0.0873090000
H  2.8198030000  0.4895530000  -0.3081640000
H  -0.6390510000  -1.5087390000  0.1509320000