18
charge=0, multiplicity=2, basis=def2-QZVPP, AUX_BASIS_CORR=rimp2-def2-QZVPPD, SCF_ALGORITHM=GDM, xc_grid=000099000590, mem_total=7500, num_basis=729, num_pairs=242667, num_threads=2
C  -1.0826450000  1.2445510000  -0.0235520000
C  -1.8026520000  -0.0625090000  -0.2015160000
C  -0.8328140000  -1.2301210000  -0.3723760000
C  0.3007200000  -1.1379540000  0.6446010000
C  1.1210390000  0.1501290000  0.4383340000
C  0.2132100000  1.3401680000  0.2488870000
C  2.1086510000  0.0261680000  -0.6745530000
H  -2.4732050000  0.0044120000  -1.0635170000
H  -2.4517620000  -0.2352220000  0.6664160000
H  -0.4083080000  -1.2049520000  -1.3810490000
H  -1.3633060000  -2.1800880000  -0.2728810000
H  0.9579430000  -2.0082900000  0.5754550000
H  -0.1197960000  -1.1326590000  1.6557090000
H  1.6910290000  0.3172090000  1.3670040000
H  2.2365140000  0.8105900000  -1.4087390000
H  2.7771250000  -0.8262760000  -0.7109630000
H  0.6714280000  2.3208100000  0.3400440000
H  -1.6707080000  2.1518710000  -0.1264260000