47
charge=0, multiplicity=1, basis=def2-QZVPP, mem_total=120000, AUX_BASIS_CORR=rimp2-def2-QZVPPD, SCF_ALGORITHM=GDM, xc_grid=000099000590, num_basis=2004, num_pairs=1301992, num_threads=32
C  3.0165460000  -0.2291670000  -1.2637770000
C  1.4951400000  -0.2161610000  -1.3896060000
C  0.8458430000  0.6172690000  -0.2292370000
C  1.7728330000  0.5897210000  0.9943760000
C  2.5460460000  -0.6870440000  1.1898860000
C  3.5248670000  -0.9209260000  0.0116260000
C  -0.4405800000  -0.1650580000  0.1168810000
C  -0.3707660000  -1.4913950000  -0.4901660000
C  0.8313970000  -1.5957440000  -1.3967340000
O  -1.1519280000  -2.4170150000  -0.3151500000
C  0.6204320000  2.0656660000  -0.6744940000
C  -0.5628690000  2.1620260000  -1.6545880000
C  -1.6479120000  1.2223120000  -1.2445600000
N  -2.4984640000  1.4756420000  -0.2546430000
O  -3.0252960000  0.3785420000  0.2747870000
C  -1.3400810000  0.0250240000  1.1919770000
C  -1.4035590000  1.3690770000  1.8596130000
C  -2.1398730000  2.3360320000  0.8642040000
O  1.8784040000  1.5342810000  1.7426180000
C  4.9312350000  -0.4409880000  0.3558780000
O  -2.4688130000  -2.9254550000  2.1082900000
O  -3.3919450000  -1.4182010000  -1.9126250000
H  1.2409910000  0.2873060000  -2.3241540000
H  1.4750560000  -2.3864140000  -1.0029620000
H  0.5169060000  -1.9216770000  -2.3896800000
H  3.3671480000  0.8100000000  -1.2627170000
H  3.4664020000  -0.6985390000  -2.1423720000
H  1.5275680000  2.4583930000  -1.1422030000
H  0.4528800000  2.6866800000  0.2024060000
H  3.0717200000  -0.6369740000  2.1425860000
H  1.8270760000  -1.5082180000  1.2494380000
H  3.5714670000  -1.9978490000  -0.1692360000
H  5.6071400000  -0.5695010000  -0.4931770000
H  4.9242980000  0.6194630000  0.6227540000
H  5.3425520000  -0.9964970000  1.2011080000
H  -1.9772860000  0.4207000000  -1.8948910000
H  -1.7314180000  -0.8391450000  1.7134710000
H  -0.9285470000  3.1902280000  -1.7048880000
H  -0.2508420000  1.8954670000  -2.6643260000
H  -0.4097690000  1.7526760000  2.0856650000
H  -1.9684150000  1.3010130000  2.7864390000
H  -1.5429870000  3.1835220000  0.5392890000
H  -3.0662840000  2.6955990000  1.3044580000
H  -2.1222570000  -2.8765530000  1.2018930000
H  -2.8192700000  -2.1425260000  -1.6370820000
H  -3.3799850000  -3.2156010000  2.0269010000
H  -3.5004560000  -0.9021350000  -1.0972280000