46
charge=1, multiplicity=1, basis=def2-QZVPP, mem_total=120000, AUX_BASIS_CORR=rimp2-def2-QZVPPD, SCF_ALGORITHM=GDM, xc_grid=000099000590, num_basis=1947, num_pairs=1239558, num_threads=32
C  -0.7102830000  3.3126470000  -0.6895160000
C  -0.9504700000  1.9636630000  -0.0018230000
C  1.0942980000  2.4774680000  0.6740180000
C  0.7511790000  3.6360900000  -0.2668570000
H  -0.8337890000  3.2340500000  -1.7673650000
H  -1.4077780000  4.0631100000  -0.3170870000
H  1.4421800000  3.6983440000  -1.1102670000
H  0.8285450000  4.5773220000  0.2764010000
C  -0.2373530000  2.1528810000  1.3410030000
H  -0.2231190000  1.2666020000  1.9733130000
H  -0.6150870000  2.9983150000  1.9136750000
H  -1.9779190000  1.6202530000  0.0159750000
H  1.9867320000  2.5872240000  1.2848690000
N  1.2471920000  1.2415280000  -0.2008530000
N  -0.0970110000  0.9806720000  -0.7151640000
C  -0.3396710000  -0.4921860000  -0.6488040000
C  -1.7560650000  -0.8322210000  -0.2502220000
C  -2.6980130000  -1.0287890000  -1.2554760000
C  -2.1634060000  -0.9232680000  1.0791650000
C  -4.0223670000  -1.3032200000  -0.9434880000
H  -2.3918360000  -0.9685850000  -2.2939200000
C  -3.4856250000  -1.1966370000  1.3941800000
H  -1.4539410000  -0.7864640000  1.8864160000
C  -4.4187070000  -1.3854050000  0.3828840000
H  -4.7420190000  -1.4587200000  -1.7373700000
H  -3.7878630000  -1.2696660000  2.4314600000
H  -5.4498720000  -1.6042250000  0.6301210000
C  1.7913410000  0.0168490000  0.5044720000
C  0.7765360000  -1.1086690000  0.2172880000
C  1.6356290000  -2.1490040000  -0.5298300000
C  3.0966640000  -0.4770470000  -0.1225950000
C  2.5768960000  -1.2498130000  -1.3475060000
H  1.0413120000  -2.8692510000  -1.0896600000
H  3.3648960000  -1.8029230000  -1.8582000000
H  2.0644900000  -0.6323190000  -2.0910040000
H  3.8338000000  0.3088860000  -0.2961700000
C  2.6073720000  -2.7767150000  0.4820410000
C  3.6032810000  -1.6193330000  0.7791790000
H  3.1206770000  -3.6305470000  0.0401620000
H  2.0949640000  -3.1340640000  1.3760900000
H  4.6210250000  -1.8884110000  0.4984140000
H  3.6257070000  -1.3341580000  1.8323850000
H  0.3692980000  -1.5203610000  1.1374530000
H  -0.2049400000  -0.8497260000  -1.6708850000
H  1.8870930000  0.2780110000  1.5559710000
H  1.8487540000  1.4581540000  -0.9973390000