19
charge=0, multiplicity=1, basis=def2-QZVPP, AUX_BASIS_CORR=rimp2-def2-QZVPPD, SCF_ALGORITHM=GDM, xc_grid=000099000590, mem_total=15000, num_basis=921, num_pairs=340697, num_threads=4
C  1.6285610000  1.8068530000  0.0000440000
C  2.4544240000  0.7629130000  0.0000960000
C  1.9561810000  -0.6335180000  0.0000970000
O  2.7356860000  -1.5613100000  0.0001420000
C  0.4796910000  -0.8341740000  0.0000340000
C  -0.3810340000  0.2813050000  -0.0000200000
C  0.1612450000  1.6390650000  -0.0000170000
O  -0.5628250000  2.6323260000  -0.0000680000
C  -1.7705100000  0.0781680000  -0.0000780000
C  -2.2735880000  -1.2282370000  -0.0000820000
C  -1.4121820000  -2.3023010000  -0.0000290000
C  -0.0280030000  -2.1152480000  0.0000300000
O  -2.6429190000  1.0863100000  -0.0001280000
H  -3.3478240000  -1.3604550000  -0.0001270000
H  -1.8160370000  -3.3074430000  -0.0000330000
H  0.6567060000  -2.9524570000  0.0000720000
H  -2.1337600000  1.9269630000  -0.0001140000
H  1.9804710000  2.8315770000  0.0000430000
H  3.5321840000  0.8742540000  0.0001410000