3
charge=0, multiplicity=1, basis=def2-QZVPP, AUX_BASIS_CORR=rimp2-def2-QZVPPD, SCF_ALGORITHM=GDM, xc_grid=000099000590, mem_total=3750, num_basis=117, num_pairs=7123, num_threads=1
O  0.0000000000  0.0000000000  0.1162670000
H  0.0000000000  0.7644650000  -0.4650700000
H  0.0000000000  -0.7644650000  -0.4650700000