18
charge=0, multiplicity=1, basis=def2-QZVPP, mem_total=7500, AUX_BASIS_CORR=rimp2-def2-QZVPPD, SCF_ALGORITHM=GDM, xc_grid=000099000590, num_basis=702, num_pairs=203797, num_threads=2
C  3.0661000000  -0.1766500000  -0.4390920000
H  3.0673940000  0.4553530000  -1.3215380000
H  3.9488530000  -0.7805280000  -0.2666810000
C  2.0315140000  -0.2034890000  0.3886830000
H  2.0714370000  -0.8543810000  1.2604960000
C  0.7707960000  0.5870690000  0.2212650000
H  0.6420720000  1.2470270000  1.0877980000
H  0.8576560000  1.2349640000  -0.6564920000
C  -0.4706550000  -0.2977150000  0.0908940000
H  -0.5360180000  -0.9618530000  0.9606510000
H  -0.3558140000  -0.9491240000  -0.7821150000
C  -1.7640390000  0.5003090000  -0.0326720000
H  -1.6945460000  1.1662280000  -0.8996120000
H  -1.8709480000  1.1504240000  0.8425160000
C  -2.9975100000  -0.3852700000  -0.1662210000
H  -3.1082460000  -1.0388610000  0.7031590000
H  -3.9098330000  0.2084310000  -0.2539490000
H  -2.9292410000  -1.0232050000  -1.0513670000