46
charge=0, multiplicity=2, basis=def2-QZVPP, mem_total=120000, AUX_BASIS_CORR=rimp2-def2-QZVPPD, SCF_ALGORITHM=GDM, xc_grid=000099000590, num_basis=1892, num_pairs=1125514, num_threads=32
C  -1.5685010000  2.4205090000  1.3695380000
H  -1.1801820000  2.2178830000  2.3707410000
H  -2.0434230000  3.4068350000  1.3928140000
H  -2.3407760000  1.6783530000  1.1554710000
C  -0.9415130000  2.7695390000  -1.6163570000
H  -1.7263290000  2.0555030000  -1.8763570000
H  -1.3865820000  3.7700070000  -1.6191800000
H  -0.1852870000  2.7422220000  -2.4047930000
C  1.1365060000  3.6198750000  0.4968690000
H  1.9470700000  3.6039740000  -0.2360310000
H  0.7293170000  4.6361270000  0.5176970000
H  1.5726980000  3.4194320000  1.4786360000
Si  -0.2046720000  2.3611630000  0.0706320000
C  -2.6209510000  -1.4002760000  1.1995610000
C  -1.4626760000  -1.2446500000  0.4506820000
C  -1.5235700000  -1.0395660000  -0.9326450000
C  -2.7389830000  -0.9952790000  -1.5785880000
C  -3.9127500000  -1.1517330000  -0.8376500000
C  -3.8440340000  -1.3529660000  0.5335120000
H  -2.5897870000  -1.5399510000  2.2722000000
H  -2.7865100000  -0.8316890000  -2.6496240000
H  -4.8753270000  -1.1099460000  -1.3314800000
H  -4.7584160000  -1.4652290000  1.1040860000
C  -0.1140300000  -0.9127230000  -1.4491100000
C  0.6748890000  -0.6662620000  -0.1626340000
H  0.4784640000  0.6976180000  -0.0070820000
N  -0.1342990000  -1.2519640000  0.8720720000
H  0.0137360000  -0.1013080000  -2.1685460000
C  0.2000210000  -1.0553660000  2.2602500000
H  0.0996890000  -0.0056410000  2.5685770000
H  -0.4486540000  -1.6661430000  2.8871720000
H  1.2254040000  -1.3735040000  2.4433910000
Si  2.5430420000  -0.8667050000  -0.1960590000
C  3.0314140000  -2.6706970000  -0.0126830000
H  2.6934210000  -3.0773850000  0.9434540000
H  2.5863370000  -3.2804960000  -0.8025360000
H  4.1163970000  -2.7955830000  -0.0643960000
C  3.3626910000  0.1647570000  1.1444450000
H  4.4474240000  0.1639520000  1.0071100000
H  3.0244700000  1.2024480000  1.0956500000
H  3.1618760000  -0.2042890000  2.1517230000
C  3.0897450000  -0.2001840000  -1.8639860000
H  2.7655070000  0.8355620000  -1.9959500000
H  4.1788450000  -0.2185970000  -1.9527160000
H  2.6797260000  -0.7857250000  -2.6899290000
H  0.1942520000  -1.8429590000  -1.9458590000