17
charge=0, multiplicity=2, basis=def2-QZVPP, AUX_BASIS_CORR=rimp2-def2-QZVPPD, SCF_ALGORITHM=GDM, xc_grid=000099000590, mem_total=7500, num_basis=726, num_pairs=234266, num_threads=2
C  0.9379790000  -0.1357000000  -0.0242940000
C  0.6496560000  1.1794420000  -0.6586760000
C  -0.5915200000  1.7542620000  0.0207000000
H  0.4536900000  0.9968380000  -1.7176810000
H  1.5184880000  1.8414120000  -0.5791020000
C  -1.6906410000  0.6899390000  -0.0158900000
H  -0.9152730000  2.6741560000  -0.4691280000
H  -0.3530780000  2.0092590000  1.0574390000
C  -1.1923870000  -0.6453080000  0.4830710000
H  -2.0579440000  0.5723300000  -1.0402590000
H  -2.5422170000  1.0097450000  0.5914460000
C  -1.4936790000  -1.8198520000  -0.1243920000
H  -1.9330110000  -1.8427230000  -1.1154360000
H  -1.2426250000  -2.7703360000  0.3284350000
H  -0.8712750000  -0.6740740000  1.5218300000
F  1.5530220000  -1.0470870000  -0.7853200000
F  1.5832880000  -0.0588360000  1.1563570000