41
charge=0, multiplicity=1, basis=def2-QZVPP, mem_total=60000, AUX_BASIS_CORR=rimp2-def2-QZVPPD, SCF_ALGORITHM=GDM, xc_grid=000099000590, num_basis=1689, num_pairs=913547, num_threads=16
C  -0.4813700000  -1.3413820000  0.1371820000
C  -1.6968430000  -1.2963500000  -0.4435350000
C  0.7203450000  -0.8680660000  -0.4659780000
C  1.9882260000  -1.0215350000  0.1092400000
C  2.8908910000  0.7345690000  0.6236770000
C  3.2035740000  -1.4711100000  -0.6720270000
H  1.9570830000  -1.4703460000  1.1039530000
C  -2.2232060000  1.2574350000  0.4242540000
C  -1.2018620000  1.7858830000  -0.2765740000
H  -2.0007050000  0.8074830000  1.3877530000
C  -3.6735100000  1.3565570000  0.0710020000
C  0.1562980000  1.6118630000  0.1072360000
C  1.2453480000  2.1000180000  -0.5926360000
C  2.5451720000  1.6945100000  -0.3400770000
C  4.3327680000  0.2637020000  0.6700960000
H  2.3596160000  0.7673660000  1.5688090000
C  4.4221600000  -1.2035270000  0.2020390000
H  3.2616130000  -0.9166700000  -1.6139680000
H  3.1272940000  -2.5332970000  -0.9252590000
H  5.3621760000  -1.4042440000  -0.3159210000
H  4.3864120000  -1.8757360000  1.0650180000
H  4.7572770000  0.3796840000  1.6697010000
H  4.9247240000  0.8924760000  0.0008280000
C  -2.9485580000  -1.9061600000  0.1103640000
H  -1.7645980000  -0.9150050000  -1.4595770000
C  -4.5106250000  0.1468080000  0.4963190000
H  -3.7853770000  1.5319310000  -1.0040070000
H  -4.0918170000  2.2412290000  0.5683390000
C  -4.2441250000  -1.1663630000  -0.2425040000
H  -5.5644600000  0.4044690000  0.3563830000
H  -4.3814220000  -0.0152760000  1.5732750000
H  -2.8632430000  -2.0139000000  1.1972590000
H  -3.0362200000  -2.9262450000  -0.2856790000
H  -4.2694780000  -0.9852660000  -1.3238340000
H  -5.0795950000  -1.8404460000  -0.0323950000
H  -0.4008600000  -1.7425210000  1.1470800000
H  0.6621400000  -0.5741430000  -1.5094460000
H  -1.4020110000  2.2678400000  -1.2316900000
H  0.3239700000  1.1503790000  1.0718240000
H  1.0578030000  2.7167980000  -1.4672680000
H  3.3115790000  1.9923310000  -1.0496300000