20
charge=0, multiplicity=2, basis=def2-QZVPP, AUX_BASIS_CORR=rimp2-def2-QZVPPD, SCF_ALGORITHM=GDM, xc_grid=000099000590, mem_total=15000, num_basis=937, num_pairs=335905, num_threads=4
N  -1.6848520000  0.6952020000  0.6430880000
H  -1.0768380000  1.1721170000  1.2964270000
C  -1.1211610000  0.3621390000  -0.6544740000
H  -1.9507490000  0.3612430000  -1.3677340000
C  -0.1109190000  1.4162530000  -1.0964400000
C  -0.5133590000  -1.0514650000  -0.6763420000
H  0.4418250000  1.0546290000  -1.9606620000
H  -0.6448060000  2.3221530000  -1.3896770000
S  1.0715280000  1.9676370000  0.1691540000
O  0.6664030000  -1.2347930000  -0.9078040000
H  2.2407350000  1.0242180000  -0.0857110000
N  -1.3969920000  -2.0403430000  -0.4432050000
H  -2.3756210000  -1.8374100000  -0.2756420000
H  -1.0593280000  -2.9896180000  -0.4343660000
C  -2.9140460000  0.3098860000  1.0336930000
H  -3.1927790000  0.6891130000  2.0283440000
O  -3.6593310000  -0.3889440000  0.3704460000
N  3.2524310000  0.1919240000  -0.0777050000
N  3.0144630000  -0.8281890000  0.5247780000
N  2.8683020000  -1.8056800000  1.0877290000