19
charge=0, multiplicity=1, basis=def2-QZVPP, AUX_BASIS_CORR=rimp2-def2-QZVPPD, SCF_ALGORITHM=GDM, xc_grid=000099000590, mem_total=7500, num_basis=813, num_pairs=276330, num_threads=2
O  -1.3553760000  -0.7943930000  -0.5228650000
C  -2.5534650000  -0.2661100000  -0.1911030000
C  -2.8206870000  0.7065780000  0.6743250000
C  1.5171890000  1.4052800000  -0.3213750000
C  0.2396920000  1.0375130000  -0.4076730000
C  -0.1905060000  -0.3001960000  0.1353300000
C  2.5234620000  0.4889980000  0.2240200000
C  2.2436580000  -0.8074780000  0.3573480000
C  0.8967620000  -1.3448750000  -0.0447190000
H  3.5055560000  0.8742510000  0.4712890000
H  2.9986770000  -1.5065760000  0.6974040000
H  0.9255400000  -1.6354360000  -1.1037940000
H  0.6379520000  -2.2406210000  0.5210500000
H  -3.3389450000  -0.7624330000  -0.7488890000
H  -2.0664930000  1.2382400000  1.2363170000
H  -3.8518000000  0.9917020000  0.8262790000
H  -0.4169160000  -0.1978830000  1.2063020000
H  1.8332840000  2.3835520000  -0.6648140000
H  -0.5204740000  1.6920880000  -0.8151480000