15
charge=0, multiplicity=1, basis=def2-QZVPP, AUX_BASIS_CORR=rimp2-def2-QZVPPD, SCF_ALGORITHM=GDM, xc_grid=000099000590, mem_total=3750, num_basis=639, num_pairs=182991, num_threads=1
H  -2.7881450000  -0.0000590000  1.0366150000
C  -2.4127330000  0.0000000000  0.0093000000
C  -0.9080550000  0.0000010000  -0.0110960000
C  -0.1936440000  -1.1955860000  -0.0088630000
C  1.1942070000  -1.1985310000  0.0020300000
C  1.8942070000  -0.0000010000  0.0082600000
C  1.1942090000  1.1985290000  0.0020300000
C  -0.1936430000  1.1955870000  -0.0088630000
H  -2.8164320000  0.8835230000  -0.4876350000
H  -2.8164320000  -0.8834650000  -0.4877350000
H  -0.7321620000  -2.1371390000  -0.0177940000
H  1.7303130000  -2.1402750000  0.0018240000
H  2.9774170000  -0.0000020000  0.0139130000
H  1.7303160000  2.1402730000  0.0018240000
H  -0.7321580000  2.1371400000  -0.0177940000