31
charge=1, multiplicity=1, basis=def2-QZVPP, mem_total=30000, AUX_BASIS_CORR=rimp2-def2-QZVPPD, SCF_ALGORITHM=GDM, xc_grid=000099000590, num_basis=1308, num_pairs=611075, num_threads=8
C  2.3757680000  -0.4750520000  -0.1289040000
N  0.9660020000  -0.8951880000  -0.1098220000
N  0.2085820000  0.0734610000  -0.1652700000
C  -1.2139120000  -0.0987480000  -0.1033770000
C  -2.0449530000  0.8773160000  -0.6419310000
C  -1.7224240000  -1.2517010000  0.4855100000
C  -3.4151920000  0.6837200000  -0.5938500000
H  -1.6470380000  1.7667850000  -1.1097620000
C  -3.0931540000  -1.4248760000  0.5310940000
H  -1.0509420000  -1.9889670000  0.9031190000
C  -3.9382680000  -0.4614790000  -0.0083030000
H  -4.0747880000  1.4294790000  -1.0175170000
H  -3.5045270000  -2.3126700000  0.9931790000
H  -5.0108300000  -0.6032830000  0.0310970000
C  2.9334530000  -0.7965690000  1.2619730000
H  2.4299930000  -0.2262600000  2.0439270000
H  2.8329360000  -1.8588430000  1.4840000000
H  3.9933930000  -0.5398440000  1.2792490000
C  3.0802240000  -1.2989160000  -1.2030920000
H  2.6308470000  -1.1387190000  -2.1843370000
H  4.1267170000  -0.9943520000  -1.2521110000
H  3.0398250000  -2.3622850000  -0.9680420000
C  2.3253050000  1.0347040000  -0.4440140000
C  0.8695650000  1.4354130000  -0.2207180000
C  0.5770560000  2.2057940000  1.0577940000
H  0.9655590000  1.6830100000  1.9328500000
H  1.0710880000  3.1757340000  0.9953900000
H  -0.4891860000  2.3778090000  1.1979450000
H  2.9925590000  1.6007330000  0.2032620000
H  2.6216380000  1.2168420000  -1.4762670000
H  0.4498640000  1.9492770000  -1.0834220000