29
charge=0, multiplicity=1, basis=def2-QZVPP, AUX_BASIS_CORR=rimp2-def2-QZVPPD, SCF_ALGORITHM=GDM, xc_grid=000099000590, mem_total=30000, num_basis=1302, num_pairs=591818, num_threads=8
N  1.2176340000  -1.6261710000  0.2354300000
C  0.1240740000  -2.4093410000  0.7831320000
H  1.8432820000  -1.1375310000  0.8696090000
C  -1.1101320000  -1.5341510000  0.9963400000
H  -0.0999820000  -3.2318650000  0.1025500000
H  0.4210780000  -2.8077790000  1.7496470000
O  -1.4731120000  -1.1756860000  2.0989520000
N  -1.7407190000  -1.1729640000  -0.1551720000
H  -1.2853300000  -1.4148600000  -1.0300710000
C  -2.7698280000  -0.1780150000  -0.1436680000
C  -2.2610480000  1.2193940000  -0.4268330000
H  -3.5459400000  -0.4061350000  -0.8774810000
H  -3.2426800000  -0.1680700000  0.8395780000
O  -1.1240700000  1.5300090000  -0.6672790000
O  -3.2642490000  2.1065360000  -0.3903580000
H  -2.8993840000  2.9826140000  -0.5784040000
C  1.2419210000  -1.2611170000  -1.0628860000
C  2.2536000000  -0.1745540000  -1.4006870000
O  0.4646780000  -1.7029940000  -1.9003120000
N  1.8760610000  1.0805770000  -0.7740150000
H  2.2655520000  -0.0532080000  -2.4812070000
H  3.2497460000  -0.4443070000  -1.0506990000
H  1.0660230000  1.5553510000  -1.1467360000
C  2.2002870000  1.3362600000  0.5196080000
C  1.6692330000  2.6206040000  1.0955520000
O  2.8974300000  0.5716410000  1.1740880000
H  0.9460680000  3.1087130000  0.4439350000
H  2.5097970000  3.2933900000  1.2735280000
H  1.2068840000  2.4030670000  2.0579650000