52
charge=0, multiplicity=2, basis=def2-QZVPP, mem_total=240000, AUX_BASIS_CORR=rimp2-def2-QZVPPD, SCF_ALGORITHM=GDM, xc_grid=000099000590, num_basis=2356, num_pairs=1607752, num_threads=64
H  -0.9339380000  3.3818010000  -0.6685380000
C  -0.8611290000  2.8980550000  0.2957300000
C  -0.6654390000  1.6224300000  2.7391580000
C  0.1031630000  1.9156660000  0.4734800000
C  -1.7211270000  3.2490670000  1.3273810000
C  -1.6255660000  2.6050240000  2.5514360000
C  0.2128770000  1.2722560000  1.7164450000
H  -2.4631050000  4.0233990000  1.1722450000
H  -2.2923260000  2.8692540000  3.3635190000
H  -0.5783830000  1.1188770000  3.6930420000
C  1.2360440000  0.2135660000  1.9546940000
H  2.2615760000  0.5735220000  1.9296400000
C  1.0061130000  1.5448130000  -0.6952560000
O  0.8795170000  2.4837190000  -1.7535100000
C  2.0947650000  3.2179890000  -1.8550880000
C  3.1095310000  2.2531410000  -1.2742880000
O  2.3504680000  1.6260150000  -0.2488220000
H  2.2609980000  3.4596170000  -2.9040450000
H  2.0315120000  4.1391300000  -1.2664350000
H  3.9669420000  2.7375770000  -0.8099950000
H  3.4458090000  1.5099330000  -2.0012950000
O  1.0433710000  -0.6164900000  3.0279290000
H  0.1970800000  -1.0756680000  2.8934530000
C  0.6886520000  0.1616990000  -1.3036300000
H  -0.3820540000  0.1299680000  -1.5018470000
H  1.2022890000  0.1222090000  -2.2667910000
C  1.1319230000  -1.0103460000  -0.4566660000
C  0.2613050000  -2.2432940000  -0.4213430000
H  -0.0117600000  -2.5771590000  -1.4279180000
H  0.7749220000  -3.0669760000  0.0745960000
S  -1.3240450000  -2.2346680000  0.4587110000
C  -2.4240060000  -1.1932010000  -0.4778670000
C  -4.1039200000  0.4038470000  -1.9528870000
C  -2.7880770000  0.0427160000  0.0282340000
C  -2.8962310000  -1.6579470000  -1.6995250000
C  -3.7358010000  -0.8453720000  -2.4420610000
C  -3.6394580000  0.8422570000  -0.7219280000
H  -2.4107710000  0.3675460000  0.9879810000
H  -2.6244910000  -2.6459700000  -2.0494810000
H  -4.1123400000  -1.1890500000  -3.3972350000
H  -3.9296780000  1.8124060000  -0.3405860000
H  -4.7629070000  1.0355360000  -2.5361040000
O  -1.8076650000  -3.6061730000  0.3623870000
O  -1.1546830000  -1.6116640000  1.7752930000
C  2.5633420000  -1.3682140000  -0.6592710000
O  3.3009330000  -0.8806830000  -1.4813300000
O  2.9656830000  -2.3151480000  0.2052580000
C  4.3375330000  -2.7063010000  0.1157740000
H  4.4773960000  -3.4605440000  0.8853070000
H  4.9868530000  -1.8500430000  0.2964460000
H  4.5538380000  -3.1166520000  -0.8705570000
H  1.1993050000  -0.4877110000  0.8524740000