22
charge=0, multiplicity=2, basis=def2-QZVPP, AUX_BASIS_CORR=rimp2-def2-QZVPPD, SCF_ALGORITHM=GDM, xc_grid=000099000590, mem_total=15000, num_basis=876, num_pairs=323172, num_threads=4
C  1.7439030000  0.2034940000  -0.0551420000
C  0.8138040000  0.2623730000  1.1455080000
C  -0.4919750000  -0.5089110000  0.9308100000
H  0.6144420000  1.3088090000  1.3757880000
H  1.3492120000  -0.1604060000  2.0012660000
C  -1.3121810000  -0.0714620000  -0.2867580000
H  -1.1054580000  -0.3943330000  1.8313090000
H  -0.2750020000  -1.5785990000  0.8486140000
C  -1.7143000000  1.3999420000  -0.2109990000
C  -2.5413970000  -0.9647730000  -0.4363280000
N  2.0772130000  1.2446430000  -0.6522650000
C  2.2526280000  -1.1490920000  -0.5023360000
H  2.7426940000  -1.6551580000  0.3325710000
H  2.9592660000  -1.0411750000  -1.3229030000
H  1.4195770000  -1.7734240000  -0.8310230000
H  -2.2629290000  -2.0185730000  -0.5178790000
H  -3.1155300000  -0.6996640000  -1.3268450000
H  -2.2904510000  1.5973670000  0.6988900000
H  -2.3384380000  1.6734880000  -1.0645100000
H  -0.8470740000  2.0616920000  -0.2162360000
H  -3.2037620000  -0.8611070000  0.4286840000
H  -0.6899390000  -0.2008520000  -1.1803990000