46
charge=0, multiplicity=2, basis=def2-QZVPP, mem_total=120000, AUX_BASIS_CORR=rimp2-def2-QZVPPD, SCF_ALGORITHM=GDM, xc_grid=000099000590, num_basis=1933, num_pairs=1140543, num_threads=32
O  2.0810540000  -3.2847510000  -1.2910640000
C  1.8547580000  -2.6344480000  -0.3452500000
C  2.7845260000  -2.0503100000  0.6791680000
C  3.3784840000  -0.7235990000  0.1769180000
Cl  -0.2718540000  -2.0221450000  0.0148370000
C  -2.3339950000  -1.4526860000  0.2244390000
H  3.5827830000  -2.7825950000  0.8321730000
H  2.2433240000  -1.9143640000  1.6133660000
H  4.1588340000  -0.4252790000  0.8846540000
C  2.3795000000  0.4232390000  0.0203510000
H  3.8789720000  -0.9082120000  -0.7782070000
C  -2.3471000000  0.0008060000  -0.0837830000
C  -2.6369310000  -1.8533230000  1.6432690000
C  -2.9973080000  -2.3351530000  -0.8029190000
C  -1.9390100000  0.4657050000  -1.3401980000
C  -2.7792630000  0.9435860000  0.8510340000
H  -3.6916840000  -1.6631700000  1.8757320000
H  -2.0234910000  -1.3088430000  2.3609690000
H  -2.4542220000  -2.9192120000  1.7780350000
H  -2.6525710000  -2.1242200000  -1.8137110000
H  -4.0806850000  -2.1670830000  -0.7764170000
H  -2.8077680000  -3.3873850000  -0.5893930000
C  -1.9683440000  1.8138320000  -1.6480100000
C  -2.4147410000  2.7388220000  -0.7101710000
C  -2.8201600000  2.2962200000  0.5384980000
H  -3.0994010000  0.6250230000  1.8337470000
H  -1.6373340000  2.1479030000  -2.6242070000
H  -2.4396010000  3.7943420000  -0.9521130000
H  -3.1665350000  3.0056270000  1.2806040000
H  -1.5671410000  -0.2388270000  -2.0729010000
C  1.7760460000  0.8552350000  1.3593150000
H  1.5557500000  0.0861640000  -0.6196890000
C  3.0401680000  1.6180970000  -0.6712850000
H  3.8973460000  1.9508870000  -0.0710420000
C  2.0649200000  2.7804980000  -0.8494260000
H  3.4399170000  1.3084510000  -1.6419560000
C  1.4582610000  3.2061080000  0.4859750000
H  1.2590850000  2.4705850000  -1.5245940000
H  2.5693290000  3.6250520000  -1.3270760000
C  0.8051800000  2.0209730000  1.1917910000
H  0.7246390000  4.0021730000  0.3315730000
H  2.2471030000  3.6234340000  1.1239070000
H  -0.0518070000  1.6820650000  0.6053760000
H  0.4138260000  2.3263750000  2.1661170000
H  2.5914900000  1.1456150000  2.0357620000
H  1.2529930000  0.0183630000  1.8272790000