20
charge=-1, multiplicity=1, basis=def2-QZVPP, AUX_BASIS_CORR=rimp2-def2-QZVPPD, SCF_ALGORITHM=GDM, xc_grid=000099000590, mem_total=7500, num_basis=843, num_pairs=269469, num_threads=2
C  1.3367780000  -1.2044940000  -0.5315110000
C  2.3494150000  -0.3302390000  -0.0044520000
O  3.0528410000  -0.5735180000  0.9816710000
C  2.4568760000  1.0418830000  -0.6641480000
C  -1.1185650000  -0.1908130000  0.4952300000
C  -2.2375600000  -0.9732090000  0.1073680000
C  -3.1301830000  -1.7022920000  -0.2714130000
O  -1.0359120000  1.0817630000  -0.1607350000
C  -2.0578560000  1.9740130000  0.1897040000
H  1.1168420000  -1.0710250000  -1.5912010000
H  1.4494000000  -2.2467720000  -0.2361880000
H  0.1692570000  -0.7959770000  0.0198810000
H  3.1090610000  1.6820090000  -0.0692340000
H  1.4634910000  1.4878820000  -0.7512830000
H  2.8720830000  0.9436010000  -1.6723810000
H  -3.8911880000  -2.3567560000  -0.6142960000
H  -1.0300370000  -0.0703240000  1.5810020000
H  -1.8956660000  2.9050060000  -0.3622010000
H  -2.0438910000  2.1935960000  1.2684490000
H  -3.0482060000  1.5737040000  -0.0647050000