4
charge=0, multiplicity=1, basis=def2-QZVPP, AUX_BASIS_CORR=rimp2-def2-QZVPPD, SCF_ALGORITHM=GDM, xc_grid=000099000590, mem_total=3750, num_basis=201, num_pairs=20533, num_threads=1
N  0.0954680000  -1.1189300000  0.0000000000
N  -0.2490570000  1.2061460000  0.0000000000
N  0.0000000000  0.1121150000  0.0000000000
H  1.0751230000  -1.3953210000  0.0000000000