46
charge=0, multiplicity=1, basis=def2-QZVPP, mem_total=120000, AUX_BASIS_CORR=rimp2-def2-QZVPPD, SCF_ALGORITHM=GDM, xc_grid=000099000590, num_basis=2001, num_pairs=1141145, num_threads=32
C  0.3240970000  -2.4067240000  -0.4646640000
H  -0.0007460000  -2.9663160000  -1.3620890000
C  1.4324400000  -1.4507660000  -0.8389370000
C  -0.1365820000  0.4734850000  -0.5351640000
H  -0.3124200000  0.9828390000  0.4155920000
H  -0.2528760000  1.2221440000  -1.3196030000
C  -1.2019940000  -0.6130150000  -0.6888550000
H  -1.2260830000  -0.9382860000  -1.7474400000
N  -0.8032440000  -1.7382260000  0.1493190000
C  2.3388990000  0.6629280000  -0.0644250000
C  2.6435850000  -1.9658720000  -1.2744510000
H  3.1266980000  -1.4572030000  -2.0894800000
H  2.7917770000  -3.0432750000  -1.2664140000
C  3.5433280000  0.1221450000  0.4072960000
C  4.2663660000  -0.9478980000  -0.0956010000
C  1.2687510000  -0.0860020000  -0.5913550000
H  4.5877080000  -0.9051210000  -1.1201340000
H  3.8458610000  0.5254870000  1.3724770000
C  5.1968300000  -1.7185150000  0.8024910000
H  5.2543090000  -2.7640090000  0.4932300000
H  6.2134150000  -1.3141870000  0.7539570000
H  4.8653240000  -1.6939730000  1.8412130000
C  -1.8831280000  -2.6582200000  0.4464720000
H  -2.3411790000  -3.0573950000  -0.4773840000
H  -1.4678710000  -3.5070310000  0.9944560000
C  -2.5777750000  -0.0758970000  -0.3511370000
C  -3.3939800000  -0.6934060000  0.5950790000
C  -2.9313310000  -1.9501500000  1.2825020000
H  -2.4980620000  -1.7048630000  2.2568800000
H  -3.7838270000  -2.6102860000  1.4609230000
H  0.7288330000  -3.1425570000  0.2384710000
C  -4.6463680000  -0.1498250000  0.8757310000
H  -5.2774460000  -0.6376410000  1.6111750000
C  -3.0463860000  1.0584360000  -1.0140870000
H  -2.4273230000  1.5305960000  -1.7681010000
C  -5.0962600000  0.9871130000  0.2281220000
H  -6.0732320000  1.3945370000  0.4585840000
C  -4.2914300000  1.5915450000  -0.7298040000
H  -4.6358240000  2.4736090000  -1.2560790000
C  2.0741750000  2.0403850000  0.4600030000
O  2.3932250000  2.4461000000  1.5483290000
O  1.4698010000  2.8178680000  -0.4523160000
C  1.1708950000  4.1512090000  -0.0308930000
H  2.0835200000  4.6752700000  0.2515890000
H  0.4909810000  4.1369690000  0.8210960000
H  0.7021640000  4.6307910000  -0.8861950000