28
charge=0, multiplicity=1, basis=def2-QZVPP, AUX_BASIS_CORR=rimp2-def2-QZVPPD, SCF_ALGORITHM=GDM, xc_grid=000099000590, mem_total=30000, num_basis=1164, num_pairs=479789, num_threads=8
C  0.2182080000  -0.7922420000  -0.0000080000
C  -1.2155950000  -0.3265810000  -0.0000010000
C  -2.2348970000  -1.2759500000  0.0000030000
C  -1.5476280000  1.0213560000  -0.0000010000
C  -3.5645080000  -0.8856860000  0.0000030000
H  -1.9849040000  -2.3324180000  0.0000050000
C  -2.8813650000  1.4133930000  0.0000000000
H  -0.7537400000  1.7552680000  -0.0000010000
C  -3.8926670000  0.4649170000  0.0000020000
H  -4.3468710000  -1.6353700000  0.0000060000
H  -3.1288970000  2.4684870000  0.0000000000
O  1.0795750000  0.3178440000  0.0000400000
C  2.4952370000  0.0786280000  0.0000010000
H  -4.9312470000  0.7731050000  0.0000030000
C  3.0910430000  1.4793970000  0.0001010000
H  2.7611360000  2.0264730000  0.8846810000
H  4.1818530000  1.4370990000  0.0000800000
H  2.7611070000  2.0266120000  -0.8843820000
C  2.9185250000  -0.6757850000  -1.2594750000
H  2.5492230000  -1.7027700000  -1.2666310000
H  2.5441240000  -0.1648230000  -2.1486300000
H  4.0077100000  -0.7195020000  -1.3204120000
C  2.9185630000  -0.6759820000  1.2593470000
H  2.5441860000  -0.1651610000  2.1485940000
H  2.5492630000  -1.7029690000  1.2663510000
H  4.0077500000  -0.7197050000  1.3202450000
H  0.3865990000  -1.4199670000  0.8838950000
H  0.3866110000  -1.4199010000  -0.8839560000