13
charge=-1, multiplicity=1, basis=def2-QZVPP, mem_total=7500, AUX_BASIS_CORR=rimp2-def2-QZVPPD, SCF_ALGORITHM=GDM, xc_grid=000099000590, num_basis=660, num_pairs=191444, num_threads=2
N  1.2838050000  1.3593010000  0.0000300000
C  2.3213750000  0.5121660000  -0.0000550000
N  2.0619460000  -0.8102730000  -0.0001250000
C  0.7071620000  -0.8422940000  -0.0000750000
C  0.2318470000  0.4861620000  0.0000200000
C  -1.1411880000  0.6749830000  0.0000820000
N  -0.1295550000  -1.9049780000  -0.0001050000
C  -1.4054410000  -1.5789060000  -0.0000370000
N  -1.9678890000  -0.3496780000  0.0000540000
H  3.3419180000  0.8788170000  -0.0000730000
H  -2.1152610000  -2.4025350000  -0.0000600000
O  -1.6674230000  1.9280460000  0.0001730000
H  -0.9079430000  2.5260820000  0.0001780000