20
charge=-1, multiplicity=1, basis=def2-QZVPP, mem_total=15000, AUX_BASIS_CORR=rimp2-def2-QZVPPD, SCF_ALGORITHM=GDM, xc_grid=000099000590, num_basis=843, num_pairs=279213, num_threads=4
C  -1.7849440000  1.5885830000  -0.0661940000
C  -2.3543290000  0.1923460000  0.0672730000
O  -3.5044590000  -0.0405660000  -0.2606470000
C  -1.4194160000  -0.8655170000  0.5691640000
C  -0.3682140000  -1.2054680000  -0.5121230000
C  0.9210670000  -0.8509200000  -0.5521080000
C  1.4754320000  -0.0176420000  0.5423100000
O  2.9224240000  0.0088020000  0.6204690000
C  3.5164440000  0.4903260000  -0.5526410000
H  -2.5114190000  2.2420110000  -0.5480430000
H  -1.5367080000  1.9803130000  0.9249330000
H  -0.8593340000  1.5502150000  -0.6414210000
H  1.1510750000  1.0366880000  0.4420480000
H  1.1940590000  -0.3511270000  1.5544250000
H  4.5992110000  0.3911400000  -0.4374210000
H  3.1683390000  -0.0765390000  -1.4215950000
H  3.2748630000  1.5562760000  -0.7145460000
H  -0.8041940000  -1.8165470000  -1.3070970000
H  -2.0200900000  -1.7432940000  0.8238370000
H  -0.9157570000  -0.5052660000  1.4722130000