36
charge=0, multiplicity=2, basis=def2-QZVPP, AUX_BASIS_CORR=rimp2-def2-QZVPPD, SCF_ALGORITHM=GDM, xc_grid=000099000590, mem_total=60000, num_basis=1539, num_pairs=674175, num_threads=16
N  2.5922070000  0.4307430000  -0.2291530000
C  3.7643630000  -0.2676220000  -0.4793550000
C  2.3337620000  1.6802190000  0.3391380000
O  1.2372490000  1.9476880000  0.7605310000
O  4.8358380000  0.2924500000  -0.4588790000
C  3.4862930000  2.6481050000  0.3488700000
C  3.5869490000  -1.7245440000  -0.7964620000
F  1.3319570000  -0.4970380000  -0.0906150000
C  -0.5084570000  -1.4071380000  0.3118170000
C  -1.2983480000  -0.2297110000  -0.1584760000
C  -2.7872780000  -0.3955540000  0.0583930000
O  -3.4558020000  0.6834210000  -0.3621640000
O  -3.3227890000  -1.3612280000  0.5398210000
C  -4.8872810000  0.6545410000  -0.2062970000
C  -5.4253240000  1.9622520000  -0.7317770000
C  -0.4373920000  -2.6054940000  -0.5646130000
C  -0.3288400000  -1.5795490000  1.7770080000
H  -0.9714630000  0.6796240000  0.3519760000
H  -5.2804020000  -0.2032210000  -0.7547170000
H  -5.1191820000  0.5088410000  0.8499990000
H  -5.1757790000  2.0899920000  -1.7861420000
H  -6.5122250000  1.9822440000  -0.6301350000
H  -5.0115180000  2.8040730000  -0.1748630000
H  0.3716930000  -3.2745480000  -0.2655150000
H  -0.3018060000  -2.3308300000  -1.6127140000
H  -1.3772560000  -3.1704370000  -0.4900390000
H  0.4745130000  -2.2839170000  2.0010650000
H  -0.1095260000  -0.6262690000  2.2605340000
H  -1.2536070000  -1.9769050000  2.2164540000
H  3.9145740000  2.7593850000  -0.6464100000
H  3.1047040000  3.5984730000  0.7158620000
H  4.2855060000  2.2799120000  0.9917940000
H  3.1828700000  -2.2500880000  0.0696050000
H  2.8799650000  -1.8581530000  -1.6150220000
H  4.5599210000  -2.1311120000  -1.0609390000
H  -1.1406910000  -0.0506050000  -1.2251450000