57
charge=1, multiplicity=1, basis=def2-QZVPP, mem_total=120000, AUX_BASIS_CORR=rimp2-def2-QZVPPD, SCF_ALGORITHM=GDM, xc_grid=000099000590, num_basis=2412, num_pairs=1441773, num_threads=32
C  1.1919430000  -0.3920340000  -0.3587170000
C  2.5148620000  1.9072690000  -0.2810530000
C  3.7697730000  1.0991510000  -0.6303630000
C  3.7256470000  -0.3252850000  -0.1089770000
C  2.5268680000  -1.0418420000  -0.7201860000
H  3.8835260000  1.0791630000  -1.7195660000
H  4.6320710000  1.6311780000  -0.2231570000
H  3.6291550000  -0.3294090000  0.9778210000
H  2.6416990000  -1.0541870000  -1.8084330000
H  2.5065660000  -2.0760820000  -0.3756540000
N  1.3044370000  1.0817080000  -0.5687190000
O  0.2060700000  1.7182000000  -0.6465840000
C  0.0921090000  -0.9125280000  -1.2827220000
H  0.0811960000  -2.0018300000  -1.2312470000
H  -0.8917520000  -0.5466020000  -0.9925310000
H  0.2817180000  -0.6185900000  -2.3157700000
C  0.8153600000  -0.6728200000  1.1049480000
H  -0.0583520000  -0.0938650000  1.4067820000
H  0.5612930000  -1.7289300000  1.2005740000
H  1.6284530000  -0.4683260000  1.7978090000
C  2.4516350000  3.1550370000  -1.1603050000
H  1.6240840000  3.8049300000  -0.8810490000
H  3.3801950000  3.7151720000  -1.0435970000
H  2.3417410000  2.8846340000  -2.2111880000
C  2.5045640000  2.3188310000  1.1990820000
H  3.3147820000  3.0282360000  1.3716940000
H  1.5726860000  2.8247420000  1.4573800000
H  2.6458460000  1.4764050000  1.8733420000
C  -2.2686440000  3.1763010000  0.4799170000
C  -2.6159950000  1.8943240000  0.6243250000
C  -1.3629480000  2.3423680000  1.1681180000
H  -2.5079500000  4.1730330000  0.1529010000
H  -0.3615600000  1.9751030000  0.4035370000
H  -0.9270420000  2.3602850000  2.1667420000
C  -3.5109690000  0.8143770000  0.4407890000
C  -3.2608980000  -0.4319020000  1.0447170000
C  -4.6582500000  0.9685030000  -0.3485690000
C  -4.1251590000  -1.4792160000  0.8641480000
H  -2.3811400000  -0.5604120000  1.6627500000
C  -5.5327680000  -0.0790040000  -0.5389250000
H  -4.8587570000  1.9240140000  -0.8178780000
C  -5.2703630000  -1.3140330000  0.0688010000
H  -3.9551720000  -2.4439590000  1.3231500000
H  -6.4103090000  0.0617000000  -1.1524680000
O  -6.0481920000  -2.3882150000  -0.0497490000
C  -7.2414890000  -2.3152470000  -0.8260510000
H  -7.6924390000  -3.3010160000  -0.7619770000
H  -7.9267170000  -1.5713880000  -0.4143240000
H  -7.0127140000  -2.0838890000  -1.8685030000
N  4.9648080000  -1.0179430000  -0.3954800000
C  5.3110840000  -2.1257150000  0.3251160000
C  6.6108240000  -2.7883770000  -0.0465930000
H  7.2575580000  -2.7995380000  0.8311200000
H  6.4099500000  -3.8251000000  -0.3177390000
H  7.1308440000  -2.2955270000  -0.8683100000
O  4.5962600000  -2.5366080000  1.2200790000
H  5.5396040000  -0.7222600000  -1.1677840000