20
charge=0, multiplicity=1, basis=def2-QZVPP, AUX_BASIS_CORR=rimp2-def2-QZVPPD, SCF_ALGORITHM=GDM, xc_grid=000099000590, mem_total=7500, num_basis=816, num_pairs=265665, num_threads=2
C  -1.4818340000  1.4917530000  0.0000070000
C  -0.7619020000  0.3643610000  -0.0000070000
C  0.7204880000  0.3308020000  -0.0000060000
C  1.4181410000  1.6627070000  -0.0000030000
C  1.3520910000  -0.8466390000  -0.0000070000
C  2.8242180000  -1.1047110000  -0.0000040000
H  1.1443310000  2.2492510000  -0.8804180000
H  1.1443350000  2.2492430000  0.8804190000
H  2.4993140000  1.5514050000  -0.0000030000
H  3.1047130000  -1.6966120000  0.8765570000
H  3.1046850000  -1.6967780000  -0.8764610000
H  3.4299800000  -0.2003140000  -0.0000990000
O  -1.3115530000  -0.8788600000  -0.0000280000
C  -2.7172470000  -0.9876660000  0.0000310000
H  -3.1495860000  -0.5245080000  0.8922290000
H  -2.9388000000  -2.0528060000  0.0000570000
H  -3.1496600000  -0.5245390000  -0.8921490000
H  0.7300840000  -1.7342160000  -0.0000040000
H  -0.9899960000  2.4506760000  0.0000250000
H  -2.5607030000  1.4964340000  0.0000000000