35
charge=1, multiplicity=1, basis=def2-QZVPP, mem_total=60000, AUX_BASIS_CORR=rimp2-def2-QZVPPD, SCF_ALGORITHM=GDM, xc_grid=000099000590, num_basis=1482, num_pairs=701082, num_threads=16
C  0.9553500000  1.9859040000  0.4429100000
N  -0.1537100000  1.6902170000  -0.0612520000
N  -1.1654610000  1.5058650000  -0.6781350000
C  -2.0568430000  0.4866660000  -0.3095870000
C  -3.2402040000  0.4487300000  -1.0453140000
C  -1.7850980000  -0.4420850000  0.7010820000
C  -4.1787180000  -0.5253780000  -0.7534350000
H  -3.4023280000  1.1825390000  -1.8243430000
C  -2.7266310000  -1.4099600000  0.9744280000
H  -0.8483050000  -0.4164240000  1.2443390000
C  -3.9209650000  -1.4478770000  0.2518070000
H  -5.1060240000  -0.5685600000  -1.3090010000
H  -2.5393800000  -2.1437210000  1.7474360000
H  -4.6540720000  -2.2125650000  0.4770660000
C  2.1877700000  1.2461630000  0.0001510000
H  2.9595380000  1.9966860000  -0.1982040000
H  2.5256980000  0.6936180000  0.8828550000
C  1.0293220000  3.0281300000  1.5171640000
H  0.0472170000  3.4065210000  1.7917060000
H  1.5202000000  2.6070040000  2.3962740000
H  1.6458430000  3.8544910000  1.1561210000
C  1.7698000000  -2.3676570000  1.3803910000
C  2.2877510000  -2.3523010000  0.1594630000
H  2.2137050000  -1.7998640000  2.1929400000
H  0.9174510000  -2.9894450000  1.6271640000
C  3.4867800000  -1.5562790000  -0.2594590000
H  3.8848960000  -1.0118900000  0.6018300000
H  4.2806600000  -2.2405660000  -0.5726170000
H  1.8272670000  -2.9632440000  -0.6151800000
C  3.1931440000  -0.6025820000  -1.4274600000
C  1.9937590000  0.3145420000  -1.1896730000
H  1.1125330000  -0.3107960000  -1.0193750000
H  1.7976170000  0.9050140000  -2.0881970000
H  4.0858380000  -0.0084480000  -1.6418760000
H  2.9945270000  -1.1890300000  -2.3280430000