21
charge=0, multiplicity=2, basis=def2-QZVPP, AUX_BASIS_CORR=rimp2-def2-QZVPPD, SCF_ALGORITHM=GDM, xc_grid=000099000590, mem_total=15000, num_basis=846, num_pairs=304651, num_threads=4
C  -1.4535730000  0.3560070000  0.2668150000
C  -2.5734310000  -0.3258380000  -0.4435260000
C  -0.5037390000  -0.4658230000  1.0781110000
C  -1.1315200000  1.7636950000  -0.1014690000
H  -2.0325610000  2.3861350000  -0.1263490000
H  -0.6819080000  1.8381740000  -1.1048570000
H  -0.4207980000  2.2129160000  0.5941570000
H  -2.9029350000  -1.2242830000  0.0853720000
H  -2.2898560000  -0.6416300000  -1.4606800000
H  -3.4364730000  0.3366990000  -0.5598440000
H  -1.0632370000  -1.0429050000  1.8256080000
H  0.1783380000  0.1870520000  1.6287110000
C  0.3268340000  -1.4677210000  0.2562460000
H  0.9651050000  -2.0441540000  0.9314000000
C  1.1973770000  -0.8094680000  -0.8223820000
H  -0.3408010000  -2.1805620000  -0.2359530000
H  0.5611750000  -0.2824130000  -1.5395270000
H  1.7261830000  -1.5816180000  -1.3878560000
C  2.1751760000  0.1298010000  -0.2823860000
C  2.9721040000  0.8960160000  0.1771000000
H  3.6824000000  1.5765810000  0.5787650000