43
charge=0, multiplicity=2, basis=def2-QZVPP, AUX_BASIS_CORR=rimp2-def2-QZVPPD, SCF_ALGORITHM=GDM, xc_grid=000099000590, mem_total=120000, num_basis=1830, num_pairs=1090711, num_threads=32
C  1.9415840000  -1.0609160000  -1.4373600000
C  2.7745040000  -2.2501670000  -0.9561310000
C  2.4003990000  -2.3582780000  0.5198680000
H  3.8447680000  -2.1077750000  -1.1168350000
H  2.4881590000  -3.1628310000  -1.4867610000
C  0.8768630000  -2.1280550000  0.5708840000
H  2.9145750000  -1.5738470000  1.0849760000
H  2.6810260000  -3.3126680000  0.9724460000
C  0.6024610000  -1.1716750000  -0.6741880000
H  1.7806350000  -1.0609580000  -2.5171410000
H  2.4583600000  -0.1325490000  -1.1997700000
C  -0.1180000000  0.1172140000  -0.3729660000
H  -1.6370820000  1.7457740000  1.1420360000
C  -2.2237110000  1.0179230000  0.5980910000
C  -1.5633680000  0.0966450000  -0.2437650000
C  -2.3736570000  -0.8575920000  -0.8918400000
H  -1.9292330000  -1.5801740000  -1.5619020000
C  -3.7467710000  -0.8768900000  -0.7223130000
H  -4.3372790000  -1.6162240000  -1.2506640000
C  -4.3705940000  0.0429170000  0.1113610000
H  -5.4448480000  0.0212640000  0.2469920000
C  -3.5940460000  0.9883490000  0.7726260000
H  -4.0615780000  1.7035220000  1.4392370000
H  3.4028960000  2.6864710000  1.2551150000
C  2.4700410000  2.6605250000  0.7042720000
C  1.8144410000  1.4527800000  0.5298860000
H  2.2483070000  0.5583980000  0.9535160000
C  0.5949010000  1.3751540000  -0.1612400000
C  0.0783930000  2.5739440000  -0.6831510000
H  -0.8484230000  2.5453850000  -1.2417420000
C  0.7386890000  3.7785530000  -0.5175680000
H  0.3175070000  4.6819000000  -0.9427780000
C  1.9384150000  3.8318740000  0.1818120000
H  2.4544420000  4.7748430000  0.3146630000
C  0.1453250000  -3.4564160000  0.3427640000
H  0.3471400000  -4.1537410000  1.1603470000
H  0.4560390000  -3.9332990000  -0.5901020000
H  -0.9349150000  -3.2991290000  0.2953160000
C  0.4322590000  -1.5667520000  1.9198790000
H  0.8847080000  -0.5989860000  2.1381240000
H  0.7205210000  -2.2561620000  2.7183230000
H  -0.6514420000  -1.4429120000  1.9625330000
H  -0.0630510000  -1.7411160000  -1.3214440000