32
charge=-1, multiplicity=1, basis=def2-QZVPP, mem_total=30000, AUX_BASIS_CORR=rimp2-def2-QZVPPD, SCF_ALGORITHM=GDM, xc_grid=000099000590, num_basis=1473, num_pairs=626099, num_threads=8
C  -2.2859450000  1.6893780000  -0.3372560000
N  -1.2011400000  1.2169870000  0.3178460000
C  -1.2345660000  -0.0335940000  0.8381140000
C  -2.3470200000  -0.8127070000  0.7246220000
C  -3.5138250000  -0.3557560000  0.0511710000
C  -3.4225740000  0.9600360000  -0.4896280000
C  0.0563280000  2.0324970000  0.4691770000
C  1.2700670000  1.4216360000  -0.1149720000
C  2.0083250000  0.5348590000  0.6439310000
O  1.6755770000  0.1220290000  1.7974790000
C  -4.6600940000  -1.1573270000  -0.0607160000
N  -5.7410400000  -0.6884770000  -0.6945570000
O  -6.7346800000  -1.4455970000  -0.7618900000
C  3.2933860000  -0.0242890000  0.0711530000
C  3.8174430000  -1.1784300000  0.6497230000
C  4.9888220000  -1.7501000000  0.1739320000
C  5.6687740000  -1.1691190000  -0.8891830000
C  5.1655310000  -0.0086670000  -1.4647140000
C  3.9914080000  0.5570140000  -0.9870960000
H  -4.2674300000  1.3707310000  -1.0223350000
H  -2.1896850000  2.6900870000  -0.7380950000
H  3.6204230000  1.4723810000  -1.4303320000
H  5.6947280000  0.4623150000  -2.2862950000
H  6.5863810000  -1.6111650000  -1.2615730000
H  5.3757190000  -2.6523930000  0.6356390000
H  3.2763560000  -1.5991830000  1.4879410000
H  -0.1823820000  2.9992340000  0.0213330000
H  0.1888370000  2.1639710000  1.5456640000
H  -0.3194820000  -0.3338030000  1.3442870000
H  -2.3329710000  -1.8032300000  1.1605810000
H  -4.6902490000  -2.1605450000  0.3625260000
H  1.5314810000  1.6579820000  -1.1366340000