20
charge=1, multiplicity=1, basis=def2-QZVPP, AUX_BASIS_CORR=rimp2-def2-QZVPPD, SCF_ALGORITHM=GDM, xc_grid=000099000590, mem_total=15000, num_basis=924, num_pairs=309505, num_threads=4
C  2.5258990000  0.5023080000  -0.0000050000
C  1.1273320000  0.2986080000  -0.0000030000
C  0.3026290000  1.4386870000  -0.0000130000
C  0.5709340000  -0.9962230000  0.0000080000
C  -1.0692540000  1.2905020000  -0.0000090000
H  0.7389720000  2.4306110000  -0.0000220000
C  -0.7967160000  -1.1421560000  0.0000110000
H  1.2164000000  -1.8646760000  0.0000160000
C  -1.5813640000  0.0047470000  0.0000020000
H  -1.7417830000  2.1368420000  -0.0000150000
H  -1.2722760000  -2.1130750000  0.0000190000
O  3.3396150000  -0.4639850000  -0.0000100000
C  4.7842860000  -0.2476120000  0.0000040000
H  4.9971900000  0.8203920000  -0.0001400000
H  5.1637120000  -0.7328290000  0.8950360000
H  5.1637570000  -0.7330770000  -0.8948730000
N  -3.0645920000  -0.1601610000  0.0000050000
O  -3.4831850000  -1.2943430000  -0.0000080000
O  -3.7222980000  0.8541970000  0.0000150000
H  2.9306420000  1.5168080000  -0.0000150000