25
charge=0, multiplicity=1, basis=def2-QZVPP, AUX_BASIS_CORR=rimp2-def2-QZVPPD, SCF_ALGORITHM=GDM, xc_grid=000099000590, mem_total=15000, num_basis=1074, num_pairs=399288, num_threads=4
C  1.5133090000  1.9513630000  -0.7301070000
C  2.6269490000  1.0446530000  -0.1934710000
C  2.3589860000  -0.4372070000  -0.4726250000
C  3.4126880000  -1.3073030000  0.0349680000
C  0.2124530000  1.6842150000  -0.1216070000
H  1.7827010000  2.9959620000  -0.5533810000
H  1.4331530000  1.8333140000  -1.8157780000
H  2.7351510000  1.1947510000  0.8828520000
H  3.5738940000  1.3336430000  -0.6548250000
H  1.4070970000  -0.7240700000  -0.0172990000
H  2.2499130000  -0.5959160000  -1.5503850000
C  -0.8470430000  1.4532940000  0.3898070000
C  4.2879460000  -2.0041350000  0.4605280000
C  -2.1323590000  1.1327150000  1.0045280000
H  -2.9398280000  1.3948580000  0.3140240000
C  -2.2473600000  -0.3458550000  1.3940690000
H  -3.2055360000  -0.5107020000  1.8913360000
H  -1.4604630000  -0.5961550000  2.1084970000
C  -2.1214590000  -1.2972220000  0.1987250000
H  -1.1669180000  -1.1378700000  -0.3083760000
H  -2.1443030000  -2.3361510000  0.5335240000
C  -3.1908790000  -1.1073070000  -0.7765330000
N  -4.0418510000  -0.9394840000  -1.5273400000
H  -2.2744970000  1.7483500000  1.8962660000
H  5.0632120000  -2.6268970000  0.8352420000