27
charge=0, multiplicity=1, basis=def2-QZVPP, AUX_BASIS_CORR=rimp2-def2-QZVPPD, SCF_ALGORITHM=GDM, xc_grid=000099000590, mem_total=30000, num_basis=1215, num_pairs=487207, num_threads=8
C  0.6493500000  0.9273620000  -0.0000070000
C  -0.6493510000  0.9273640000  0.0000290000
C  0.0000020000  2.2793870000  0.0000140000
C  -1.9306290000  0.2721750000  0.0000160000
C  -3.0983080000  1.0382420000  -0.0000360000
C  -2.0373740000  -1.1225940000  0.0000540000
C  -4.3420130000  0.4263080000  -0.0000570000
H  -3.0155380000  2.1182690000  -0.0000620000
C  -3.2803520000  -1.7308740000  0.0000350000
H  -1.1380680000  -1.7252010000  0.0001010000
C  -4.4369350000  -0.9587490000  -0.0000220000
H  -5.2404360000  1.0316170000  -0.0001000000
H  -3.3509130000  -2.8119420000  0.0000650000
H  -5.4087540000  -1.4372110000  -0.0000370000
C  1.9306280000  0.2721730000  -0.0000070000
C  3.0983060000  1.0382420000  0.0000200000
C  2.0373740000  -1.1225960000  -0.0000340000
C  4.3420120000  0.4263090000  0.0000260000
H  3.0155350000  2.1182690000  0.0000380000
C  3.2803530000  -1.7308750000  -0.0000290000
H  1.1380690000  -1.7252040000  -0.0000600000
C  4.4369350000  -0.9587480000  0.0000010000
H  5.2404340000  1.0316190000  0.0000480000
H  3.3509150000  -2.8119420000  -0.0000500000
H  5.4087550000  -1.4372080000  0.0000050000
H  0.0000260000  2.8750860000  0.9143940000
H  -0.0000210000  2.8750900000  -0.9143630000