36
charge=1, multiplicity=1, basis=def2-QZVPP, AUX_BASIS_CORR=rimp2-def2-QZVPPD, SCF_ALGORITHM=GDM, xc_grid=000099000590, mem_total=60000, num_basis=1485, num_pairs=778362, num_threads=16
C  1.2038210000  1.3506030000  0.0411380000
C  1.2038200000  -1.3506030000  0.0411390000
C  -0.3218680000  -1.2485380000  0.1116620000
C  -0.8480660000  0.0000010000  0.8188970000
C  -0.3218670000  1.2485390000  0.1116610000
H  -0.7356030000  -1.2682830000  -0.8969340000
H  -0.6726050000  -2.1455690000  0.6252950000
H  -0.5172490000  0.0000010000  1.8595110000
H  -0.7356020000  1.2682830000  -0.8969350000
H  -0.6726040000  2.1455700000  0.6252930000
N  1.7704370000  0.0000000000  -0.4009080000
O  2.7237400000  0.0000000000  -1.0929290000
C  1.6368420000  2.3839390000  -0.9893780000
H  1.1503520000  3.3245590000  -0.7308370000
H  2.7134840000  2.5441410000  -0.9894420000
H  1.3164530000  2.1052750000  -1.9939640000
C  1.8518310000  1.6569340000  1.4033150000
H  2.9376030000  1.5648450000  1.3586320000
H  1.6138570000  2.6958250000  1.6328870000
H  1.4708540000  1.0399830000  2.2123800000
C  1.6368410000  -2.3839400000  -0.9893760000
H  2.7134830000  -2.5441430000  -0.9894400000
H  1.1503510000  -3.3245590000  -0.7308340000
H  1.3164520000  -2.1052760000  -1.9939620000
C  1.8518310000  -1.6569330000  1.4033160000
H  1.6138560000  -2.6958240000  1.6328890000
H  2.9376030000  -1.5648440000  1.3586340000
H  1.4708530000  -1.0399810000  2.2123810000
N  -2.3011200000  0.0000010000  0.8722240000
C  -3.0929670000  0.0000000000  -0.2453630000
C  -4.5777500000  0.0000020000  -0.0062920000
H  -5.0063000000  -0.8784170000  -0.4895950000
H  -4.8521880000  -0.0000340000  1.0483370000
H  -5.0062870000  0.8784640000  -0.4895290000
O  -2.6090910000  -0.0000050000  -1.3626080000
H  -2.7439940000  0.0000000000  1.7759910000