25
charge=1, multiplicity=2, basis=def2-QZVPP, AUX_BASIS_CORR=rimp2-def2-QZVPPD, SCF_ALGORITHM=GDM, xc_grid=000099000590, mem_total=30000, num_basis=1101, num_pairs=451678, num_threads=8
N  -0.4718710000  1.0172630000  0.4111250000
C  -1.7754230000  0.9159150000  0.0403970000
H  -0.0695120000  0.2628710000  0.9575310000
C  -2.3995150000  -0.3671120000  0.0076540000
H  -2.2629230000  1.8110520000  -0.3208010000
O  -3.7319970000  -0.4183370000  -0.1289490000
N  -1.7451470000  -1.4840670000  0.0803390000
H  -2.4149880000  -2.2529570000  0.0937350000
C  0.3538960000  2.0768260000  0.0346170000
C  1.8452130000  1.7694920000  0.1932380000
O  -0.0732810000  3.0839430000  -0.4567390000
N  2.1492460000  0.5151130000  -0.4951880000
H  2.1207700000  1.6718520000  1.2431750000
H  2.4093560000  2.5841340000  -0.2520310000
H  2.2723420000  0.5492820000  -1.4968910000
H  -4.1484730000  0.4468450000  -0.0399160000
C  1.8829130000  -0.6570310000  0.0955990000
C  1.7507460000  -1.8985400000  -0.7786630000
O  1.6252790000  -0.7725220000  1.2845930000
N  0.6763370000  -2.6962610000  -0.1279770000
H  2.6790160000  -2.4706960000  -0.7919890000
H  1.4510850000  -1.6689290000  -1.7999850000
H  0.9342610000  -2.8375230000  0.8540130000
H  0.5427620000  -3.6003510000  -0.5799190000
H  -0.2806420000  -2.1418930000  -0.0933150000