16
charge=0, multiplicity=1, basis=def2-QZVPP, AUX_BASIS_CORR=rimp2-def2-QZVPPD, SCF_ALGORITHM=GDM, xc_grid=000099000590, mem_total=7500, num_basis=642, num_pairs=195717, num_threads=2
C  0.1434160000  1.2616670000  0.2931710000
C  -0.8727240000  0.1308810000  0.4831570000
C  1.4434350000  0.5986450000  -0.2261400000
C  1.0979750000  -0.8863950000  -0.4257890000
C  -0.0187490000  -1.1319590000  0.5898530000
H  0.3162140000  1.7788330000  1.2386800000
H  -0.2670080000  1.9894730000  -0.4067550000
H  -1.5056690000  0.2860770000  1.3631800000
H  2.2391820000  0.6999980000  0.5159530000
H  1.8050010000  1.0620140000  -1.1445470000
H  1.9573170000  -1.5439840000  -0.2856620000
H  0.7126800000  -1.0510710000  -1.4339730000
H  0.3949850000  -1.2002020000  1.6018850000
H  -0.5936170000  -2.0436760000  0.4070700000
O  -1.6902950000  0.1031130000  -0.6894080000
H  -2.2968400000  -0.6394080000  -0.6260760000