12
charge=0, multiplicity=1, basis=def2-QZVPP, mem_total=3750, AUX_BASIS_CORR=rimp2-def2-QZVPPD, SCF_ALGORITHM=GDM, xc_grid=000099000590, num_basis=468, num_pairs=103230, num_threads=1
C  -0.6647200000  0.6637080000  0.0000890000
C  0.6647200000  0.6637080000  0.0000840000
C  -1.5800880000  -0.5219520000  -0.0000620000
H  -2.2326670000  -0.5049660000  0.8776970000
H  -2.2326950000  -0.5047200000  -0.8777960000
H  -1.0452790000  -1.4710230000  -0.0002040000
C  1.5800880000  -0.5219520000  -0.0000740000
H  1.0452790000  -1.4710230000  -0.0002040000
H  2.2326840000  -0.5047240000  -0.8778160000
H  2.2326780000  -0.5049620000  0.8776770000
H  -1.1626240000  1.6301720000  0.0002170000
H  1.1626240000  1.6301720000  0.0002090000