15
charge=0, multiplicity=2, basis=def2-QZVPP, AUX_BASIS_CORR=rimp2-def2-QZVPPD, SCF_ALGORITHM=GDM, xc_grid=000099000590, mem_total=7500, num_basis=774, num_pairs=248346, num_threads=2
C  -0.4645740000  0.7057000000  0.0001270000
C  -0.4817980000  -0.6821310000  0.0000110000
N  -1.5691850000  -1.4287070000  0.0001060000
C  -2.7195800000  -0.7562570000  0.0003310000
C  -2.8136380000  0.6371040000  0.0004620000
C  -1.6583630000  1.4035030000  0.0003600000
C  0.9307180000  1.1977360000  -0.0000340000
C  0.9204440000  -1.2024690000  -0.0002350000
H  -3.6211780000  -1.3591570000  0.0004080000
H  -3.7900520000  1.1036530000  0.0006420000
H  -1.6793440000  2.4860410000  0.0004540000
O  1.3529510000  -2.3060900000  -0.0003920000
O  1.3640530000  2.3061760000  -0.0000010000
N  1.7352130000  -0.0014260000  -0.0002520000
O  2.9891370000  -0.0049270000  -0.0004330000