44
charge=0, multiplicity=1, basis=def2-QZVPP, mem_total=120000, AUX_BASIS_CORR=rimp2-def2-QZVPPD, SCF_ALGORITHM=GDM, xc_grid=000099000590, num_basis=1860, num_pairs=1146834, num_threads=32
C  -2.1644190000  0.0683620000  -0.6080490000
C  -0.9597710000  -0.8557430000  -0.3421530000
C  0.3120920000  -0.0771830000  -0.7310840000
C  -2.0892550000  1.3591420000  0.1851960000
H  -2.1151600000  0.3225210000  -1.6792560000
C  -0.8215110000  2.1169780000  -0.1622270000
H  -2.9641510000  1.9722120000  -0.0341730000
H  -2.0928650000  1.1511620000  1.2579770000
C  0.4072410000  1.2395290000  0.0533580000
H  -0.8621520000  2.4248810000  -1.2193780000
C  -0.8349090000  -1.4447690000  1.0556280000
C  0.3661910000  -1.7441830000  1.5488500000
C  1.5573290000  -0.9809120000  -0.5801700000
C  1.6699660000  -1.5635910000  0.8356090000
C  -2.0705100000  -1.7783990000  1.8448750000
H  -1.7956200000  -2.2203370000  2.8034960000
H  -2.6955000000  -0.9044310000  2.0243920000
H  -2.6987350000  -2.4915830000  1.3059410000
H  1.3047200000  1.7814450000  -0.2492870000
H  0.4780670000  1.0471020000  1.1257340000
C  2.6639770000  -0.6260460000  1.5413610000
H  3.3740610000  -1.1512840000  2.1782280000
H  2.1648580000  0.1460530000  2.1273310000
C  2.8144440000  -0.1273380000  -0.7026620000
O  -3.4259210000  -0.5225410000  -0.3649220000
O  -0.7945510000  3.2778430000  0.6461770000
O  3.2486690000  0.3755680000  -1.6964090000
O  3.4142530000  0.0144070000  0.4975500000
C  -3.8074520000  -1.5049510000  -1.2967790000
H  -4.8470910000  -1.7551290000  -1.0899950000
H  -3.7289250000  -1.1277380000  -2.3245510000
H  -3.2052420000  -2.4173260000  -1.2120880000
C  0.1258850000  4.2620460000  0.2334140000
H  1.1650430000  3.9403700000  0.3603910000
H  -0.0323050000  4.5343690000  -0.8179040000
H  -0.0461580000  5.1390250000  0.8557580000
C  1.5833800000  -2.0588570000  -1.6630860000
H  0.7361930000  -2.7380410000  -1.5587830000
H  2.4963490000  -2.6535800000  -1.5940870000
H  1.5546910000  -1.6034090000  -2.6536680000
H  0.4249660000  -2.1985340000  2.5346410000
H  0.2440370000  0.1792160000  -1.7938340000
H  -1.0646150000  -1.6987180000  -1.0336840000
H  2.1498710000  -2.5449700000  0.7551560000