24
charge=0, multiplicity=1, basis=def2-QZVPP, mem_total=15000, AUX_BASIS_CORR=rimp2-def2-QZVPPD, SCF_ALGORITHM=GDM, xc_grid=000099000590, num_basis=1030, num_pairs=366547, num_threads=4
C  -2.2139850000  -1.2038830000  -0.3333660000
C  -3.5654800000  -0.9117960000  -0.4141640000
C  -4.0444540000  0.3318280000  -0.0165930000
C  -3.1475400000  1.2851240000  0.4469550000
C  -1.7886060000  1.0100430000  0.4904360000
C  -1.2903560000  -0.2416910000  0.0988480000
H  -1.8497230000  -2.1877750000  -0.6045680000
H  -4.2562990000  -1.6678830000  -0.7703090000
H  -5.1047840000  0.5499910000  -0.0576170000
H  -3.5081480000  2.2560190000  0.7686260000
H  -1.0958420000  1.7628910000  0.8489730000
C  0.1287130000  -0.5636150000  0.1639380000
C  0.9739230000  0.2545460000  -0.4936400000
H  0.7308680000  1.1099170000  -1.1372360000
H  3.1969360000  -0.8556290000  -1.4542230000
P  2.6735870000  -0.1451470000  -0.3523280000
C  3.0046430000  -1.1913000000  1.0714700000
H  2.8718610000  -0.6033770000  1.9793340000
H  2.2507250000  -1.9777330000  1.0727510000
H  4.0155620000  -1.5973110000  1.0253190000
C  3.7420990000  1.3171860000  -0.2793410000
H  3.5633250000  1.9413490000  -1.1556410000
H  3.4931340000  1.8925210000  0.6128030000
H  4.7948380000  1.0355790000  -0.2505560000