16
charge=-1, multiplicity=1, basis=def2-QZVPP, AUX_BASIS_CORR=rimp2-def2-QZVPPD, SCF_ALGORITHM=GDM, xc_grid=000099000590, mem_total=7500, num_basis=669, num_pairs=191847, num_threads=2
C  -1.1465330000  1.4757090000  0.3498640000
C  -1.5199500000  0.0480890000  0.0252720000
C  -0.8808100000  -0.9302880000  0.8323110000
O  -2.1776890000  -0.2078340000  -1.0025180000
C  0.9797990000  -1.0492150000  -0.0939110000
C  1.8083980000  0.0274900000  0.0407240000
C  3.0018930000  0.5166100000  -0.2378810000
H  -1.6259250000  2.1634830000  -0.3480040000
H  -1.4027810000  1.7411990000  1.3788790000
H  -0.0452080000  1.5432310000  0.2664390000
H  -1.2279370000  -1.9543710000  0.7229130000
H  -0.5451750000  -0.6451670000  1.8229770000
H  0.5132840000  -1.2445090000  -1.0590190000
H  1.2122930000  -1.9495080000  0.4734390000
H  3.3241510000  1.5107740000  0.0802540000
H  3.7620300000  -0.0328300000  -0.8160070000