41
charge=0, multiplicity=2, basis=def2-QZVPP, AUX_BASIS_CORR=rimp2-def2-QZVPPD, SCF_ALGORITHM=GDM, xc_grid=000099000590, mem_total=60000, num_basis=1770, num_pairs=992095, num_threads=16
C  0.7185650000  2.0915410000  1.5236190000
C  0.2933860000  3.4878520000  1.0766130000
C  0.1502720000  3.4782540000  -0.4485660000
H  -0.6733150000  3.7417690000  1.5217430000
H  1.0088770000  4.2460280000  1.4036650000
C  -0.7330780000  2.3524100000  -0.8656990000
H  1.1342010000  3.3442780000  -0.9062820000
H  -0.2525110000  4.4304050000  -0.8117140000
C  -0.2014390000  1.0457510000  0.9502420000
H  0.6799100000  2.0225910000  2.6165750000
H  1.7528600000  1.8989200000  1.2358480000
C  0.1532920000  -0.2160190000  0.5408620000
H  -1.2400610000  1.1796210000  1.2373300000
H  -2.0701730000  -0.6701310000  2.0451440000
C  -2.0049840000  -1.3247770000  1.1847400000
C  -0.8905390000  -1.2401130000  0.3414200000
C  -0.8161290000  -2.1383250000  -0.7300310000
H  0.0394250000  -2.1001910000  -1.3928880000
C  -1.8232990000  -3.0615780000  -0.9625560000
H  -1.7452260000  -3.7378110000  -1.8058340000
C  -2.9293310000  -3.1209200000  -0.1245450000
H  -3.7144560000  -3.8452620000  -0.3040470000
C  -3.0114250000  -2.2492040000  0.9537610000
H  -3.8590900000  -2.2979570000  1.6273060000
H  3.8425410000  -3.0162690000  0.7179500000
C  3.4138940000  -2.1040620000  0.3199120000
C  2.1167410000  -1.7517130000  0.6553750000
H  1.5352910000  -2.3911960000  1.3088400000
C  1.5399990000  -0.5748530000  0.1682800000
C  2.3041250000  0.2242130000  -0.6846890000
H  1.8692870000  1.1248880000  -1.0978510000
C  3.6020680000  -0.1288350000  -1.0260300000
H  4.1730160000  0.5050970000  -1.6943620000
C  4.1645920000  -1.2927860000  -0.5222950000
H  5.1779090000  -1.5693140000  -0.7871660000
O  -2.0612800000  2.6190310000  -0.7456140000
H  -0.4690980000  1.7272940000  -1.7177460000
C  -2.9210020000  1.5952830000  -1.2183070000
H  -2.8135920000  0.6852590000  -0.6233070000
H  -2.7016890000  1.3645850000  -2.2661970000
H  -3.9381100000  1.9724350000  -1.1347290000