20
charge=0, multiplicity=1, basis=def2-QZVPP, AUX_BASIS_CORR=rimp2-def2-QZVPPD, SCF_ALGORITHM=GDM, xc_grid=000099000590, mem_total=15000, num_basis=924, num_pairs=326226, num_threads=4
O  -1.2071440000  -1.2102780000  -0.7936310000
C  -1.3026390000  -0.1052650000  -0.3177660000
C  -0.1738810000  0.8582330000  -0.1517520000
C  -2.6982600000  0.3617440000  0.1471880000
O  -3.6259910000  -0.5753900000  0.0008190000
O  -2.9025660000  1.4564030000  0.5792090000
C  3.2057050000  1.5023390000  0.2800920000
C  2.2233140000  1.3670790000  -0.5953340000
C  1.1686920000  0.2848970000  -0.5947000000
C  1.5580560000  -0.8750190000  0.2960560000
O  1.1869910000  -1.0299590000  1.4283130000
O  2.3989090000  -1.7195260000  -0.3163340000
H  -3.1919510000  -1.3608860000  -0.3766080000
H  2.6155620000  -2.4233290000  0.3116130000
H  1.0795500000  -0.1106890000  -1.6094910000
H  -0.1388350000  1.1624720000  0.8975450000
H  -0.4216820000  1.7670470000  -0.7085130000
H  3.9034880000  2.3269470000  0.2087420000
H  3.3544440000  0.8063230000  1.0983960000
H  2.1119130000  2.0980740000  -1.3914060000