51
charge=1, multiplicity=1, basis=def2-QZVPP, mem_total=120000, AUX_BASIS_CORR=rimp2-def2-QZVPPD, SCF_ALGORITHM=GDM, xc_grid=000099000590, num_basis=2124, num_pairs=1310846, num_threads=32
C  0.3396720000  -0.7032340000  -0.5782060000
C  0.6670740000  1.8463890000  0.0937060000
C  2.1489440000  1.6594940000  -0.2508370000
C  2.6390210000  0.2424460000  -0.0183700000
C  1.8355500000  -0.7085240000  -0.8973520000
H  2.3034520000  1.9255230000  -1.3019840000
H  2.7206340000  2.3687290000  0.3513230000
H  2.5064120000  -0.0400890000  1.0272180000
H  1.9850960000  -0.4309440000  -1.9452130000
H  2.2057190000  -1.7253760000  -0.7664660000
N  -0.1242960000  0.7093680000  -0.4685650000
O  -1.3664700000  0.9086120000  -0.6040780000
C  -0.4383680000  -1.3646070000  -1.7152390000
H  -0.0320130000  -2.3634150000  -1.8779770000
H  -1.4972410000  -1.4562000000  -1.4795660000
H  -0.3342990000  -0.7965000000  -2.6405880000
C  0.0509180000  -1.4393620000  0.7418990000
H  -1.0071120000  -1.3794120000  0.9931710000
H  0.3104380000  -2.4908040000  0.6126300000
H  0.6373940000  -1.0601390000  1.5762360000
C  0.1531480000  3.1380250000  -0.5393020000
H  -0.8655880000  3.3651550000  -0.2300470000
H  0.7963420000  3.9605890000  -0.2246480000
H  0.1804000000  3.0767760000  -1.6278670000
C  0.4477960000  1.8907820000  1.6141540000
H  0.8923510000  2.8067850000  2.0050940000
H  -0.6158190000  1.9155540000  1.8558980000
H  0.9034330000  1.0479980000  2.1299990000
C  -4.5605970000  -1.2077460000  -1.0433150000
C  -4.1866170000  -2.0328270000  -0.0252170000
C  -3.7825470000  -1.6752690000  1.2923620000
C  -4.6579350000  0.2127220000  -1.0321070000
C  -3.4087550000  -0.4541360000  1.7525350000
C  -4.1504730000  1.0846840000  -0.1233200000
C  -3.2928120000  0.7797850000  1.0039590000
H  -4.9061030000  -1.6901170000  -1.9510480000
H  -4.2718950000  -3.0975950000  -0.2129770000
H  -3.7509620000  -2.4899530000  2.0077870000
H  -5.2054970000  0.6475990000  -1.8612030000
H  -3.1122340000  -0.3951330000  2.7944800000
H  -4.3384680000  2.1383400000  -0.2972390000
H  -3.1118560000  1.6432760000  1.6416750000
H  -2.1364220000  0.7463550000  0.3873860000
N  4.0596490000  0.1376380000  -0.2768170000
C  4.7737710000  -0.8997750000  0.2543430000
C  6.2427000000  -0.9398000000  -0.0714080000
H  6.8055010000  -0.9154830000  0.8620850000
H  6.4663590000  -1.8868720000  -0.5630710000
H  6.5694560000  -0.1175010000  -0.7082140000
O  4.2318890000  -1.7336100000  0.9553970000
H  4.5087460000  0.7895180000  -0.8994600000