37
charge=0, multiplicity=1, basis=def2-QZVPP, mem_total=60000, AUX_BASIS_CORR=rimp2-def2-QZVPPD, SCF_ALGORITHM=GDM, xc_grid=000099000590, num_basis=1569, num_pairs=825798, num_threads=16
O  4.0399360000  -0.0335270000  -0.0328830000
C  3.1562030000  -1.0202260000  0.4834140000
C  2.4233020000  -1.7005460000  -0.6367810000
C  1.1631750000  -2.1199620000  -0.6717990000
C  0.1506620000  -1.9937620000  0.4168570000
O  -1.0339340000  -1.4115440000  -0.1681200000
H  0.4817440000  -1.3621820000  1.2388470000
H  -0.1193660000  -2.9687190000  0.8307110000
H  2.4720960000  -0.5892360000  1.2190060000
H  3.7809090000  -1.7535120000  1.0037010000
C  3.6617180000  1.3233330000  0.1853720000
C  -1.7996310000  -0.6605510000  0.6413820000
C  -2.8202230000  0.1614350000  -0.1408770000
O  -1.6607250000  -0.6381580000  1.8351150000
C  2.3053980000  1.6287350000  -0.3626790000
H  4.4399120000  1.9024820000  -0.3149040000
H  3.6968320000  1.5585500000  1.2570400000
C  1.2846110000  2.0416140000  0.3844070000
C  -0.1169730000  2.1143490000  -0.0430080000
C  -0.6312180000  1.2491030000  -0.9140200000
C  -2.0854430000  1.0401430000  -1.2140080000
H  -2.1783050000  0.5579750000  -2.1884860000
H  -2.6145890000  1.9937170000  -1.2751690000
C  -3.5646890000  1.0584120000  0.8466270000
H  -4.0453690000  0.4694010000  1.6277790000
H  -4.3295600000  1.6300460000  0.3165880000
H  -2.8838830000  1.7561340000  1.3357080000
C  -3.8035300000  -0.7906450000  -0.8332320000
H  -4.5228190000  -0.2135170000  -1.4189150000
H  -4.3608240000  -1.3802520000  -0.1017150000
H  -3.2812120000  -1.4735760000  -1.5039580000
H  3.0473040000  -1.8740290000  -1.5089740000
H  0.8063360000  -2.6143000000  -1.5706370000
H  2.1601590000  1.4211920000  -1.4191680000
H  1.4694340000  2.2742780000  1.4317020000
H  0.0407870000  0.5224030000  -1.3552250000
H  -0.7619560000  2.8204000000  0.4732400000