33
charge=0, multiplicity=1, basis=def2-QZVPP, AUX_BASIS_CORR=rimp2-def2-QZVPPD, SCF_ALGORITHM=GDM, xc_grid=000099000590, mem_total=60000, num_basis=1449, num_pairs=667246, num_threads=16
C  -2.8978640000  1.4277740000  -0.6673390000
C  -1.5626340000  2.0922780000  -0.8729650000
C  -0.4071010000  1.5040320000  -0.5848980000
N  -0.3319890000  0.2097080000  -0.0601110000
C  -1.5061820000  -0.4158900000  0.2736310000
C  -2.7208120000  0.0915700000  0.0197190000
C  -3.8737490000  -0.7368630000  0.4365290000
O  -3.7596420000  -1.8318250000  0.9651120000
N  -5.1067320000  -0.2086910000  0.1755390000
C  0.9417040000  -0.3639140000  0.2755620000
C  1.8878690000  -0.5651800000  -0.9111780000
C  3.2420030000  -0.5107270000  -0.2395290000
C  3.0317500000  0.5893530000  0.7932740000
O  1.6529400000  0.4632140000  1.1848870000
H  0.7353580000  -1.3367500000  0.7309350000
C  3.9207620000  0.5108710000  2.0090580000
H  3.1699180000  1.5541870000  0.2898590000
H  3.6923870000  1.3207630000  2.7027830000
H  4.9666750000  0.5948350000  1.7070510000
H  3.7750550000  -0.4393650000  2.5268270000
O  4.3140560000  -0.1806240000  -1.0899320000
H  3.4224110000  -1.4709200000  0.2617070000
O  1.7105150000  -1.7891300000  -1.5855040000
H  1.8098240000  0.2777890000  -1.6072330000
H  0.8987590000  -1.7609960000  -2.1001020000
H  4.4469820000  -0.9033110000  -1.7101510000
H  -5.9084550000  -0.7274140000  0.4937610000
H  -5.2374440000  0.7213600000  -0.1792660000
H  -1.4243980000  -1.3788530000  0.7617570000
H  -1.5433320000  3.1022190000  -1.2622020000
H  0.5412730000  2.0068290000  -0.7099890000
H  -3.4123600000  1.3089250000  -1.6317500000
H  -3.5390480000  2.0906740000  -0.0696700000