30
charge=0, multiplicity=1, basis=def2-QZVPP, AUX_BASIS_CORR=rimp2-def2-QZVPPD, SCF_ALGORITHM=GDM, xc_grid=000099000590, mem_total=30000, num_basis=1332, num_pairs=568486, num_threads=8
O  -3.4745760000  -0.1664640000  0.3127140000
C  -2.3511960000  -0.5117950000  0.0301190000
O  -2.0121300000  -1.8133050000  -0.0839930000
C  -3.0630010000  -2.7527960000  0.1469470000
C  -1.1963090000  0.3496300000  -0.2465760000
C  1.1963110000  0.3496300000  -0.2465760000
C  1.2085450000  1.6861740000  -0.1149500000
N  0.0000010000  2.3517990000  -0.3837690000
C  -1.2085430000  1.6861740000  -0.1149500000
C  2.3383620000  2.5701900000  0.2871500000
C  2.3511970000  -0.5117970000  0.0301180000
O  2.0121270000  -1.8133060000  -0.0839920000
C  3.0629960000  -2.7528000000  0.1469490000
C  -2.3383610000  2.5701890000  0.2871510000
O  3.4745770000  -0.1664680000  0.3127140000
H  3.4508550000  -2.6483070000  1.1599780000
H  3.8749540000  -2.5962720000  -0.5626770000
H  2.6152300000  -3.7331310000  0.0071070000
H  0.0000010000  3.3355250000  -0.1611690000
H  0.0000010000  -1.2657910000  -0.5907530000
H  2.1015910000  3.0820700000  1.2253500000
H  2.4894740000  3.3369630000  -0.4795110000
H  3.2567920000  2.0076940000  0.4117020000
H  -2.1015900000  3.0820690000  1.2253510000
H  -3.2567900000  2.0076920000  0.4117020000
H  -2.4894730000  3.3369620000  -0.4795100000
H  -3.8749580000  -2.5962660000  -0.5626780000
H  -3.4508600000  -2.6483030000  1.1599760000
H  -2.6152370000  -3.7331290000  0.0071050000
N  0.0000010000  -0.2644020000  -0.7110600000