47
charge=0, multiplicity=1, basis=def2-QZVPP, mem_total=60000, AUX_BASIS_CORR=rimp2-def2-QZVPPD, SCF_ALGORITHM=GDM, xc_grid=000099000590, num_basis=1923, num_pairs=904215, num_threads=16
C  2.9103930000  -0.2810750000  -0.6918510000
C  4.0891790000  -0.3878170000  -0.0659420000
C  -4.2545810000  0.8039580000  0.2793460000
C  -3.0722880000  0.5151970000  0.8151990000
C  0.7074280000  -1.2191640000  -1.2757630000
C  1.8888900000  -1.3124660000  -0.6646570000
C  -2.7121670000  -0.7561340000  1.5144990000
H  -3.5711250000  -1.4325560000  1.4740780000
C  -0.3644490000  -2.2614120000  -1.2524540000
H  -0.5628490000  -2.5940180000  -2.2780970000
H  -0.0162210000  -3.1415490000  -0.7003640000
C  -1.6891990000  -1.7673970000  -0.6462120000
C  -1.5071130000  -1.4213530000  0.8332050000
H  -0.6424230000  -0.7589800000  0.9410880000
H  -1.2606140000  -2.3375460000  1.3835710000
C  -4.5052040000  2.1037690000  -0.3952750000
O  -3.6452600000  2.9502500000  -0.5080500000
H  -1.9728600000  -0.8523530000  -1.1796860000
C  -2.7906740000  -2.8015840000  -0.8632800000
H  -2.8884060000  -3.0516210000  -1.9222110000
H  -3.7619280000  -2.4405590000  -0.5207370000
H  -2.5674610000  -3.7260930000  -0.3213690000
C  5.1555780000  0.6131260000  -0.0497410000
C  6.2769040000  0.3385330000  0.6313760000
H  6.3193930000  -0.6253400000  1.1340410000
C  7.4970540000  1.1845000000  0.8000210000
H  8.3812470000  0.6624550000  0.4213900000
H  7.6827080000  1.3832470000  1.8600840000
H  7.4317340000  2.1430440000  0.2880860000
C  4.9173620000  1.8910770000  -0.8041180000
H  5.7588030000  2.5764440000  -0.7379590000
H  4.0336640000  2.4068840000  -0.4192730000
H  4.7345970000  1.6855180000  -1.8621780000
C  -5.8964870000  2.3122210000  -0.9391500000
H  -5.9710440000  3.2909820000  -1.4079240000
H  -6.6299210000  2.2300030000  -0.1323280000
H  -6.1330540000  1.5326420000  -1.6686070000
C  -2.3959240000  -0.4712760000  2.9868190000
H  -3.2532470000  -0.0304180000  3.4985250000
H  -1.5557500000  0.2224040000  3.0764510000
H  -2.1249080000  -1.3943180000  3.5043500000
H  0.4802620000  -0.3116400000  -1.8340290000
H  2.1214360000  -2.2134810000  -0.0997140000
H  4.2938590000  -1.2997300000  0.4907250000
H  2.6731760000  0.6153700000  -1.2570540000
H  -2.2921350000  1.2721840000  0.7410750000
H  -5.0730770000  0.0908100000  0.3203250000