19
charge=0, multiplicity=1, basis=def2-QZVPP, AUX_BASIS_CORR=rimp2-def2-QZVPPD, SCF_ALGORITHM=GDM, xc_grid=000099000590, mem_total=7500, num_basis=813, num_pairs=259089, num_threads=2
C  1.3805430000  -0.5014930000  -0.0893820000
C  -0.0607730000  -0.2092750000  -0.0506200000
C  -0.5760250000  1.0898900000  -0.0662910000
C  -0.9641820000  -1.2718960000  0.0002970000
C  -1.9413900000  1.3135990000  -0.0160150000
H  0.0963440000  1.9363400000  -0.1304530000
C  -2.3328990000  -1.0506620000  0.0505610000
H  -0.5837600000  -2.2874430000  0.0052870000
C  -2.8281460000  0.2446300000  0.0448970000
H  -2.3188300000  2.3292430000  -0.0312440000
H  -3.0130580000  -1.8930120000  0.0929180000
H  -3.8959690000  0.4225800000  0.0815200000
C  2.3775010000  0.3623730000  0.0805980000
C  3.8274760000  0.0030090000  0.0308680000
H  4.3438140000  0.5618950000  -0.7553950000
H  4.3263010000  0.2499990000  0.9727140000
H  3.9683110000  -1.0620590000  -0.1608570000
H  2.1529180000  1.4074250000  0.2778650000
H  1.6312940000  -1.5460250000  -0.2618340000