41
charge=0, multiplicity=2, basis=def2-QZVPP, AUX_BASIS_CORR=rimp2-def2-QZVPPD, SCF_ALGORITHM=GDM, xc_grid=000099000590, mem_total=60000, num_basis=1770, num_pairs=970336, num_threads=16
C  -1.3055740000  -1.3642530000  1.5708300000
C  -2.0643300000  -2.3800380000  0.7026190000
C  -2.2953390000  -1.9047790000  -0.7474110000
H  -3.0298350000  -2.6028090000  1.1648950000
H  -1.5061840000  -3.3224420000  0.6849030000
C  -3.3653700000  -0.8710730000  -0.9091750000
H  -2.5727260000  -2.7703830000  -1.3558190000
H  -1.3486000000  -1.5337580000  -1.1573600000
C  0.1405040000  -1.3014310000  1.1833270000
H  -1.3759110000  -1.6764840000  2.6180330000
H  -1.7872310000  -0.3896820000  1.4981800000
C  0.8020550000  -0.2977850000  0.5992360000
H  1.9855110000  -2.4825010000  -0.5083090000
C  2.6791480000  -1.6629570000  -0.3653510000
C  2.2164130000  -0.4597660000  0.1691310000
C  3.1173370000  0.5994810000  0.2927300000
H  2.7726690000  1.5467510000  0.6893200000
C  4.4451850000  0.4504590000  -0.0765180000
H  5.1305590000  1.2818630000  0.0375020000
C  4.8964470000  -0.7573210000  -0.5917390000
H  5.9324800000  -0.8721110000  -0.8864870000
C  4.0066870000  -1.8125280000  -0.7379760000
H  4.3442150000  -2.7533890000  -1.1562450000
H  -1.3409140000  3.6276480000  1.8954460000
C  -0.9335050000  3.0355590000  1.0849650000
C  -0.3466570000  1.8074870000  1.3572630000
H  -0.2890370000  1.4466980000  2.3769290000
C  0.1779300000  1.0265070000  0.3299800000
C  0.1196150000  1.5146870000  -0.9776050000
H  0.5472280000  0.9272560000  -1.7821380000
C  -0.4736820000  2.7388810000  -1.2515850000
H  -0.5231480000  3.0961900000  -2.2730110000
C  -1.0039260000  3.5023120000  -0.2194310000
H  -1.4699180000  4.4563660000  -0.4324400000
O  -3.0776130000  0.4357050000  -0.5984860000
C  -4.7921430000  -1.2010380000  -0.6554240000
H  -5.0409920000  -2.1835620000  -1.0605430000
H  -5.4449960000  -0.4578740000  -1.1181380000
H  -5.0309140000  -1.2123080000  0.4195980000
H  -2.1505540000  0.6347350000  -0.7758800000
H  0.6944200000  -2.2202770000  1.3622650000