26
charge=0, multiplicity=2, basis=def2-QZVPP, mem_total=30000, AUX_BASIS_CORR=rimp2-def2-QZVPPD, SCF_ALGORITHM=GDM, xc_grid=000099000590, num_basis=1104, num_pairs=471928, num_threads=8
C  -0.9996720000  2.4444680000  -0.2457730000
N  -1.7379250000  1.3699770000  0.3623870000
H  0.0729720000  2.2838940000  -0.0786890000
H  -1.2591680000  3.3891440000  0.2373000000
H  -1.1644350000  2.5344300000  -1.3288440000
C  -2.1313990000  0.4032920000  -0.4506610000
C  -2.9615130000  -0.7357270000  0.1412890000
H  -2.2434970000  0.6316010000  -1.5182220000
C  -1.7711970000  -1.6231540000  0.5220290000
H  -3.5852720000  -1.1966400000  -0.6272780000
H  -3.5944670000  -0.4125320000  0.9672330000
C  -0.8035970000  -1.0139880000  -0.4776370000
H  -1.9118250000  -2.7011220000  0.4119170000
H  -1.4565220000  -1.4231180000  1.5451060000
C  0.5742500000  -0.6317700000  -0.1881410000
H  -0.9412840000  -1.3838820000  -1.4917470000
C  0.9915360000  -0.2599200000  1.0953880000
C  1.5103490000  -0.5745010000  -1.2285520000
C  2.8146770000  -0.1714830000  -0.9971660000
C  3.2146510000  0.1883110000  0.2840660000
C  2.2968240000  0.1423490000  1.3264170000
H  0.2806050000  -0.2590340000  1.9107620000
H  2.5993970000  0.4295840000  2.3263980000
H  1.2027310000  -0.8548500000  -2.2301360000
H  3.5226660000  -0.1390770000  -1.8167030000
H  4.2341150000  0.5044910000  0.4686510000