16
charge=-1, multiplicity=1, basis=def2-QZVPP, AUX_BASIS_CORR=rimp2-def2-QZVPPD, SCF_ALGORITHM=GDM, xc_grid=000099000590, mem_total=7500, num_basis=750, num_pairs=235282, num_threads=2
C  2.7048470000  -0.3964650000  -0.2709720000
C  1.9160310000  -1.2685600000  0.4735650000
C  0.5987960000  -0.9425030000  0.7571800000
C  0.0511710000  0.2529020000  0.3050840000
C  0.8435950000  1.1247070000  -0.4274690000
C  2.1625160000  0.8003820000  -0.7211740000
H  3.7345900000  -0.6509190000  -0.4979070000
H  2.3302560000  -2.2074910000  0.8255940000
H  -0.0302550000  -1.6295890000  1.3143800000
H  0.3922380000  2.0551480000  -0.7511910000
H  2.7724350000  1.4859270000  -1.3005870000
C  -1.3726230000  0.6618230000  0.6577960000
C  -2.3186650000  -0.7491940000  -0.3868140000
N  -2.9878810000  -1.5164140000  -0.9432880000
O  -1.7630630000  1.8103760000  0.3860420000
H  -1.6935990000  0.1802590000  1.6012110000