40
charge=1, multiplicity=1, basis=def2-QZVPP, mem_total=60000, AUX_BASIS_CORR=rimp2-def2-QZVPPD, SCF_ALGORITHM=GDM, xc_grid=000099000590, num_basis=1605, num_pairs=894112, num_threads=16
C  -2.1719260000  -0.8505070000  -0.0046020000
C  -1.2376160000  -1.2991250000  0.9895890000
C  0.1895570000  -1.0742280000  1.0639220000
C  1.0746310000  -1.5041690000  -0.1467410000
C  2.5137240000  -1.0453990000  -0.0360360000
C  2.8998710000  0.2194930000  0.1368270000
C  2.0530800000  1.4538670000  0.3183940000
C  1.0113260000  1.7410470000  -0.7983810000
C  -0.2952110000  2.2466780000  -0.2431330000
C  -1.4545700000  1.5843730000  -0.2974370000
C  -1.7307840000  0.2693560000  -0.9697100000
H  -0.8844340000  -0.0562050000  -1.5682400000
C  -3.5686840000  -0.6058290000  0.5825360000
H  -4.2874980000  -0.4921430000  -0.2294430000
H  -3.5834820000  0.3056840000  1.1795660000
H  -3.8962420000  -1.4347070000  1.2123540000
C  -2.2132190000  -2.2485960000  -0.7872910000
H  -2.5875040000  -3.0698260000  -0.1774520000
H  -1.2611310000  -2.5159420000  -1.2397460000
H  -2.9363900000  -2.0571490000  -1.5829040000
C  3.5184840000  -2.1552370000  -0.1786080000
H  4.5392530000  -1.7790540000  -0.1295910000
H  3.3950030000  -2.6761820000  -1.1329790000
H  3.3926290000  -2.9023430000  0.6113450000
H  0.6388420000  -1.1556460000  -1.0794240000
H  1.0532160000  -2.5945580000  -0.1806030000
H  3.9711550000  0.3879200000  0.1793440000
H  1.5440760000  1.4022100000  1.2889800000
H  2.7189950000  2.3110150000  0.4143080000
H  -2.5579660000  0.3974360000  -1.6745160000
H  -2.3215600000  2.0653970000  0.1471080000
C  -0.2220110000  3.5984750000  0.4082810000
H  0.5241100000  3.6170180000  1.2069940000
H  -1.1801950000  3.9014470000  0.8290890000
H  0.0836770000  4.3514280000  -0.3236250000
H  1.4216980000  2.4985870000  -1.4704800000
H  0.8669230000  0.8571730000  -1.4135880000
H  -1.6890150000  -1.8737090000  1.8007400000
H  0.2328380000  0.0291080000  1.1300290000
H  0.6030930000  -1.4981570000  1.9770740000