46
charge=0, multiplicity=2, basis=def2-QZVPP, mem_total=120000, AUX_BASIS_CORR=rimp2-def2-QZVPPD, SCF_ALGORITHM=GDM, xc_grid=000099000590, num_basis=1987, num_pairs=1162814, num_threads=32
P  -1.9577800000  -0.3935210000  -0.2572230000
O  -1.2306960000  -0.1856300000  -1.5355200000
N  -2.3910060000  0.9774780000  0.6365380000
N  -1.0221900000  -1.2450000000  0.8260090000
N  -3.4554600000  -1.0765760000  -0.5404690000
C  -3.6268660000  -1.9127350000  -1.7210100000
H  -3.5410150000  -2.9796110000  -1.4800650000
H  -4.6177720000  -1.7376320000  -2.1497120000
H  -2.8752560000  -1.6530520000  -2.4627470000
C  -4.4525850000  -1.2895270000  0.4930760000
H  -5.4510330000  -1.1511380000  0.0679200000
H  -4.4029480000  -2.3006170000  0.9156390000
H  -4.3289250000  -0.5682130000  1.2989840000
C  -3.4052780000  1.8823960000  0.0983380000
H  -2.9360180000  2.7225850000  -0.4211720000
H  -4.0499410000  1.3497770000  -0.5962530000
H  -4.0135260000  2.2765990000  0.9165390000
C  -1.4757420000  1.6016620000  1.5238140000
H  -1.9924790000  2.1914250000  2.2848660000
H  -0.7657810000  0.9030610000  1.9554110000
H  -0.8132860000  2.4364530000  0.9471830000
C  0.1882150000  -1.9216690000  0.3799080000
H  1.0085810000  -1.7087250000  1.0716370000
H  0.0423860000  -3.0071470000  0.3367880000
H  0.4632340000  -1.5618210000  -0.6067870000
C  -1.5215710000  -1.6890630000  2.1146400000
H  -1.8631710000  -2.7306570000  2.0846470000
H  -0.7251020000  -1.6168340000  2.8613550000
H  -2.3471440000  -1.0626670000  2.4487020000
C  3.5545790000  -0.1206770000  -0.1313650000
C  2.9129490000  -0.1610590000  -1.3601120000
C  1.8766770000  0.7224990000  -1.5933010000
C  1.4968910000  1.6467740000  -0.6213480000
C  2.1648530000  1.6710680000  0.5972680000
C  3.1974340000  0.7828330000  0.8538240000
H  3.2181350000  -0.8882190000  -2.0989020000
H  1.3288320000  0.6750360000  -2.5263060000
H  1.8653160000  2.3946560000  1.3440150000
H  3.7263420000  0.7820840000  1.7962650000
C  0.3596880000  2.5988330000  -0.9083280000
O  -0.1011870000  3.3123520000  0.1902550000
H  -0.4435370000  2.0400890000  -1.4063050000
H  0.6972420000  3.3567790000  -1.6316080000
N  4.6367070000  -1.0773430000  0.1381140000
O  5.1637870000  -1.0451410000  1.2348790000
O  4.9420650000  -1.8537470000  -0.7478040000