24
charge=0, multiplicity=1, basis=def2-QZVPP, AUX_BASIS_CORR=rimp2-def2-QZVPPD, SCF_ALGORITHM=GDM, xc_grid=000099000590, mem_total=15000, num_basis=990, num_pairs=351506, num_threads=4
C  1.5004020000  0.4125050000  -0.4191970000
C  0.2605920000  -0.2393310000  0.2107780000
C  -1.0418550000  0.2677760000  -0.3948590000
C  -2.2753820000  -0.3084180000  0.2906440000
H  -1.0638020000  0.0097530000  -1.4603780000
H  -1.0569620000  1.3587870000  -0.3398420000
C  -3.5825400000  0.1838710000  -0.3287010000
H  -2.2622080000  -0.0419960000  1.3543810000
H  -2.2495500000  -1.4041690000  0.2467070000
N  -4.8076360000  -0.3200470000  0.2799070000
H  -3.6034150000  -0.0802020000  -1.3905400000
H  -3.6135110000  1.2768440000  -0.2889020000
C  2.7403170000  -0.3228560000  0.0642320000
N  1.5354520000  1.8317690000  -0.1303140000
H  1.4445920000  0.2756830000  -1.5027740000
H  1.7830900000  1.9824530000  0.8421780000
H  -4.8550830000  -1.3310420000  0.2316590000
H  -4.8696770000  -0.0569530000  1.2564210000
O  3.5105400000  0.0838730000  0.8915000000
O  2.8813790000  -1.5251970000  -0.5265520000
H  2.2378950000  2.3025990000  -0.6875400000
H  3.6654830000  -1.9469600000  -0.1474140000
H  0.2756470000  -0.0333640000  1.2874780000
H  0.3282330000  -1.3241720000  0.0944530000