59
charge=0, multiplicity=1, basis=def2-QZVPP, mem_total=240000, AUX_BASIS_CORR=rimp2-def2-QZVPPD, SCF_ALGORITHM=GDM, xc_grid=000099000590, num_basis=2472, num_pairs=1646381, num_threads=64
C  -0.6394720000  -1.7010970000  -0.4630420000
C  0.4228310000  1.5325210000  0.3350710000
C  -1.9358440000  -1.8668790000  -0.2072690000
C  0.3549410000  -1.7954630000  0.6132740000
C  -0.6243950000  1.9386500000  -0.3973710000
C  1.8302570000  1.9644380000  0.2268140000
C  -1.9813610000  1.4013990000  -0.2065840000
C  -2.5975490000  1.0263940000  0.9170570000
C  -4.0064720000  0.4771960000  0.9445990000
C  -2.0034080000  1.1421190000  2.2930780000
C  -3.0151100000  -1.7987860000  -1.2397100000
H  -2.7866830000  1.3720220000  3.0205680000
H  -1.5467310000  0.1947530000  2.5980360000
H  -1.2395520000  1.9163900000  2.3479690000
C  -4.6995110000  0.0273580000  -0.3490620000
H  -4.6239100000  1.2487320000  1.4220000000
H  -4.0246800000  -0.3602960000  1.6544230000
C  -4.4144620000  -1.4310730000  -0.7387820000
H  -2.7064270000  -1.1333780000  -2.0509780000
H  -3.0877730000  -2.7980100000  -1.6875110000
C  -6.2122270000  0.2034400000  -0.1908100000
H  -4.3848290000  0.6715620000  -1.1755330000
H  -5.1185410000  -1.6991330000  -1.5320760000
H  -4.6682060000  -2.0741850000  0.1133440000
C  -0.5211070000  2.9383830000  -1.5199370000
H  0.4211700000  3.4818630000  -1.4981810000
H  -0.5969170000  2.4387530000  -2.4912420000
H  -1.3450770000  3.6540850000  -1.4627880000
H  -6.5895110000  -0.4047400000  0.6373770000
H  -6.4679350000  1.2443650000  0.0187160000
H  -6.7452300000  -0.0995440000  -1.0948740000
C  2.4363690000  2.3802770000  1.5417300000
H  1.9300200000  3.2672520000  1.9329880000
H  2.2981200000  1.5882110000  2.2845700000
H  3.5005790000  2.6016570000  1.4765380000
C  2.4838930000  1.9276970000  -0.9368410000
C  3.8981210000  2.3297520000  -1.2152960000
H  3.9297720000  3.1120900000  -1.9797820000
H  4.4231040000  2.7060770000  -0.3379790000
H  4.4665360000  1.4837560000  -1.6139880000
H  1.9423870000  1.5424080000  -1.7952430000
C  1.7974120000  -1.7086410000  0.2392000000
O  0.0605170000  -1.9315260000  1.7891230000
C  2.7924990000  -1.8460070000  1.1147630000
C  2.3902440000  -1.4587600000  -1.1182450000
H  2.6667230000  -2.0269640000  2.1736300000
C  4.1301170000  -1.7064320000  0.4559130000
N  3.7419540000  -1.4784350000  -0.9204020000
H  4.3838710000  -1.3264970000  -1.6805780000
O  1.8339830000  -1.2745720000  -2.1809520000
C  4.9767440000  -0.5790910000  1.0406990000
H  5.9168340000  -0.4817460000  0.4941870000
H  5.2141830000  -0.7848220000  2.0862750000
H  4.4375140000  0.3655060000  0.9794870000
H  4.6760830000  -2.6545530000  0.5464500000
H  -2.5380570000  1.3173330000  -1.1353300000
H  0.2358960000  0.8218490000  1.1319810000
H  -0.2722360000  -1.4654750000  -1.4541580000
H  -2.2252450000  -2.1058610000  0.8136590000