10
charge=0, multiplicity=1, basis=def2-QZVPP, AUX_BASIS_CORR=rimp2-def2-QZVPPD, SCF_ALGORITHM=GDM, xc_grid=000099000590, mem_total=3750, num_basis=462, num_pairs=103617, num_threads=1
C  0.0000000000  0.7012490000  1.0509810000
C  0.0000000000  1.4536490000  -0.1323760000
C  0.0000000000  0.6181420000  -1.2295460000
C  0.0000000000  -0.6181420000  -1.2295460000
C  0.0000000000  -1.4536490000  -0.1323760000
C  0.0000000000  -0.7012490000  1.0509810000
H  0.0000000000  1.2242070000  2.0007510000
H  0.0000000000  2.5348580000  -0.1351010000
H  0.0000000000  -2.5348580000  -0.1351010000
H  0.0000000000  -1.2242070000  2.0007510000