16
charge=0, multiplicity=1, basis=def2-QZVPP, mem_total=7500, AUX_BASIS_CORR=rimp2-def2-QZVPPD, SCF_ALGORITHM=GDM, xc_grid=000099000590, num_basis=777, num_pairs=246195, num_threads=2
C  -0.3232230000  1.3020250000  -0.0004580000
C  0.8073910000  0.4828300000  -0.0031260000
C  0.5291560000  -0.8842210000  -0.0001400000
N  -0.6688020000  -1.4587210000  0.0015200000
C  -1.6572740000  -0.5687610000  -0.0052470000
N  -1.5320460000  0.7751350000  -0.0009650000
N  2.1723530000  0.7092830000  -0.0017100000
C  2.6965320000  -0.4748780000  0.0016000000
N  1.7554180000  -1.4881980000  0.0034170000
N  -2.9315040000  -1.0458010000  -0.0430460000
O  -0.2127290000  2.6284430000  0.0045500000
H  3.7546510000  -0.6895750000  0.0027990000
H  1.9226290000  -2.4813030000  0.0024190000
H  -3.6794990000  -0.4026110000  0.1482210000
H  -3.0688870000  -2.0247590000  0.1392000000
H  -1.1104800000  2.9868600000  0.0006850000