52
charge=0, multiplicity=1, basis=def2-QZVPP, mem_total=120000, AUX_BASIS_CORR=rimp2-def2-QZVPPD, SCF_ALGORITHM=GDM, xc_grid=000099000590, num_basis=2181, num_pairs=1372160, num_threads=32
C  -0.0311070000  -2.3033220000  -0.6955310000
H  -0.1719490000  -2.5339420000  -1.7727090000
C  1.2225240000  -1.4973320000  -0.5409210000
C  -0.0985670000  0.4613910000  0.1145040000
H  -0.2791100000  0.5087810000  1.1932120000
H  -0.0934170000  1.4851070000  -0.2437000000
C  -1.2702490000  -0.2709800000  -0.5359490000
H  -1.1495290000  -0.1953030000  -1.6353800000
N  -1.2019290000  -1.6667740000  -0.1342210000
C  2.5366220000  0.4874110000  0.0226530000
C  2.5126450000  -2.2165490000  -0.8205790000
C  3.6235460000  -0.2745700000  0.1966390000
C  3.5846160000  -1.7796710000  0.1711810000
C  1.2251990000  -0.2120860000  -0.1644790000
C  3.3559050000  -2.3496000000  1.5760340000
H  3.3698580000  -3.4429320000  1.5610100000
H  4.1340060000  -2.0110770000  2.2634070000
H  2.3922640000  -2.0228800000  1.9723920000
C  -2.4152840000  -2.4088560000  -0.4079540000
H  -2.6976030000  -2.3434610000  -1.4751710000
H  -2.2310660000  -3.4627120000  -0.1872030000
C  -2.5999690000  0.3692520000  -0.1836920000
C  -3.6689610000  -0.3833410000  0.3022840000
C  -3.5346800000  -1.8743940000  0.4640420000
H  -3.3135580000  -2.1161970000  1.5080700000
H  -4.4802600000  -2.3603430000  0.2100440000
H  0.1058060000  -3.2678270000  -0.1953350000
C  -4.8694900000  0.2533610000  0.6122080000
H  -5.6960950000  -0.3405160000  0.9880980000
C  -2.7738350000  1.7399070000  -0.3775170000
H  -1.9620620000  2.3315990000  -0.7839460000
C  -5.0250440000  1.6171250000  0.4385260000
H  -5.9662470000  2.0940690000  0.6840280000
C  -3.9696430000  2.3645150000  -0.0686290000
H  -4.0797840000  3.4306330000  -0.2262990000
C  2.6490860000  2.0195130000  -0.0135850000
C  2.1041480000  2.5433750000  -1.3554000000
H  1.0731000000  2.2518650000  -1.5476700000
H  2.7094700000  2.1594730000  -2.1797100000
H  2.1526590000  3.6351920000  -1.3806860000
C  4.1094060000  2.4861230000  0.0695620000
H  4.5705520000  2.2167380000  1.0217520000
H  4.1409280000  3.5746700000  -0.0131110000
H  4.7155000000  2.0729780000  -0.7385990000
C  1.9245670000  2.6766420000  1.1768630000
H  2.3228950000  2.2901370000  2.1177720000
H  0.8502430000  2.5159120000  1.1811290000
H  2.0946560000  3.7564460000  1.1593550000
H  2.8463320000  -1.9825670000  -1.8397760000
H  2.3662080000  -3.2996720000  -0.7768590000
H  4.5528920000  -2.1416860000  -0.1868640000
H  4.5882050000  0.1774450000  0.3807220000