13
charge=0, multiplicity=2, basis=def2-QZVPP, AUX_BASIS_CORR=rimp2-def2-QZVPPD, SCF_ALGORITHM=GDM, xc_grid=000099000590, mem_total=3750, num_basis=579, num_pairs=147127, num_threads=1
N  -0.0000480000  -0.0005200000  0.8264180000
C  1.1630570000  -0.3065330000  0.0908000000
C  -1.1629720000  0.3063640000  0.0908990000
O  -1.3619560000  1.4412360000  -0.2571810000
O  1.3626940000  -1.4411940000  -0.2575700000
C  -2.0706160000  -0.8618780000  -0.1384190000
C  2.0699980000  0.8623140000  -0.1382540000
H  -2.4580150000  -1.2117100000  0.8204610000
H  -1.5081060000  -1.6854740000  -0.5840650000
H  -2.8915110000  -0.5588380000  -0.7852850000
H  2.8910290000  0.5599230000  -0.7852510000
H  2.4572580000  1.2121020000  0.8206990000
H  1.5069670000  1.6857030000  -0.5836200000