40
charge=0, multiplicity=2, basis=def2-QZVPP, AUX_BASIS_CORR=rimp2-def2-QZVPPD, SCF_ALGORITHM=GDM, xc_grid=000099000590, mem_total=60000, num_basis=1726, num_pairs=832662, num_threads=16
N  0.4135720000  -0.5913610000  0.0100640000
S  -0.4995130000  -1.9767930000  -0.1098410000
O  -1.9479930000  -1.3276660000  -0.1929800000
C  -2.3066080000  -0.5778900000  -1.3852700000
C  -3.6123940000  0.1193260000  -1.0894080000
H  -2.3857140000  -1.2809640000  -2.2142120000
H  -1.5090830000  0.1394390000  -1.5908810000
C  -3.5044370000  1.1635120000  0.0160160000
H  -4.3635750000  -0.6321770000  -0.8290640000
H  -3.9475550000  0.5902660000  -2.0198470000
C  -4.8261260000  1.8683420000  0.2994020000
C  1.7504180000  -0.6642790000  0.5692600000
C  2.5174290000  0.5697520000  0.0850430000
N  3.7227070000  0.7250190000  0.6279450000
C  2.0104060000  1.4518920000  -0.8613870000
O  -0.5027500000  -2.7597850000  1.0975400000
O  -0.1600140000  -2.5656240000  -1.3873430000
C  -4.7128690000  2.9127370000  1.4037150000
H  -5.5787360000  1.1222920000  0.5758980000
H  -5.1897770000  2.3424490000  -0.6189980000
H  -4.3817500000  2.4579580000  2.3408750000
H  -5.6704010000  3.4026430000  1.5915410000
H  -3.9886140000  3.6878450000  1.1392170000
C  2.7893610000  2.5311180000  -1.2491010000
C  4.4619340000  1.7622840000  0.2521800000
C  4.0425170000  2.6964150000  -0.6833170000
H  5.4367590000  1.8493950000  0.7215710000
H  4.6835320000  3.5244310000  -0.9567590000
H  1.0274050000  1.2907390000  -1.2774870000
H  2.4194260000  3.2334550000  -1.9866340000
C  2.5348610000  -1.9291760000  0.1876770000
C  1.5855500000  -0.5788470000  2.1069690000
H  1.0058770000  0.3031490000  2.3815280000
H  2.5827380000  -0.4927850000  2.5361660000
H  1.0868890000  -1.4699410000  2.4829040000
H  2.5890040000  -2.0403440000  -0.8954820000
H  2.0734330000  -2.8204610000  0.6118200000
H  3.5441210000  -1.8302110000  0.5833990000
H  -2.7472460000  1.9065960000  -0.2617560000
H  -3.1426740000  0.6827940000  0.9291860000