15
charge=-1, multiplicity=1, basis=def2-QZVPP, AUX_BASIS_CORR=rimp2-def2-QZVPPD, SCF_ALGORITHM=GDM, xc_grid=000099000590, mem_total=7500, num_basis=720, num_pairs=221994, num_threads=2
O  2.3443750000  0.7350170000  -0.0000120000
H  1.2912030000  1.7294540000  -0.0001190000
O  2.2579630000  -1.5094660000  0.0001750000
O  0.3100450000  2.0911950000  -0.0001730000
C  1.7396190000  -0.3910460000  0.0000740000
C  0.2193890000  -0.2906800000  0.0000400000
C  -0.4115680000  0.9701660000  -0.0000780000
C  -1.8096890000  1.0397020000  -0.0001320000
H  -2.2746640000  2.0189140000  -0.0002320000
C  -2.5670820000  -0.1193320000  -0.0000540000
H  -3.6504940000  -0.0478940000  -0.0000930000
C  -1.9517940000  -1.3688040000  0.0000710000
C  -0.5649010000  -1.4357990000  0.0001110000
H  -2.5474560000  -2.2747410000  0.0001280000
H  -0.0414980000  -2.3849520000  0.0002040000