15
charge=0, multiplicity=2, basis=def2-QZVPP, AUX_BASIS_CORR=rimp2-def2-QZVPPD, SCF_ALGORITHM=GDM, xc_grid=000099000590, mem_total=7500, num_basis=666, num_pairs=194743, num_threads=2
C  -2.2536670000  0.2779380000  -0.0214160000
C  -1.3472980000  1.3285720000  0.0167560000
C  0.0175020000  1.0752890000  0.0444630000
C  0.4842020000  -0.2322930000  0.0323920000
C  -0.4261100000  -1.2831960000  -0.0103430000
C  -1.7899430000  -1.0310060000  -0.0351440000
H  -3.3181120000  0.4776020000  -0.0435500000
H  -1.7040910000  2.3515770000  0.0237150000
H  0.7312570000  1.8890820000  0.0680320000
H  -0.0677720000  -2.3077770000  -0.0276450000
H  -2.4912690000  -1.8560070000  -0.0696030000
C  1.9657700000  -0.5279940000  0.0802270000
O  2.8087410000  0.5106460000  -0.1348790000
H  2.2329740000  -1.3613330000  -0.5936340000
H  2.2443410000  -0.9221710000  1.0801070000