11
charge=0, multiplicity=1, basis=def2-QZVPP, AUX_BASIS_CORR=rimp2-def2-QZVPPD, SCF_ALGORITHM=GDM, xc_grid=000099000590, mem_total=3750, num_basis=465, num_pairs=99654, num_threads=1
C  -2.1546660000  -0.4317860000  0.0001000000
C  -1.0402410000  0.2397000000  0.0000350000
C  0.0504510000  0.9584770000  -0.0000190000
O  1.3310270000  0.5029230000  -0.0000640000
C  1.4819930000  -0.9041990000  -0.0000460000
H  0.0145280000  2.0408640000  -0.0000390000
H  2.5518880000  -1.0991230000  -0.0000860000
H  1.0224740000  -1.3439830000  0.8901900000
H  1.0224010000  -1.3440150000  -0.8902290000
H  -2.6424060000  -0.7251620000  -0.9249860000
H  -2.6423230000  -0.7251220000  0.9252430000