9
charge=0, multiplicity=1, basis=def2-QZVPP, AUX_BASIS_CORR=rimp2-def2-QZVPPD, SCF_ALGORITHM=GDM, xc_grid=000099000590, mem_total=3750, num_basis=364, num_pairs=65537, num_threads=1
C  -1.6378140000  -0.3498400000  -0.0533660000
C  -0.4970070000  0.6430210000  0.0910030000
H  -1.5887470000  -0.8653470000  -1.0134510000
H  -2.6007370000  0.1633820000  0.0152350000
H  -1.6053510000  -1.1050850000  0.7349290000
S  1.1636710000  -0.0992440000  -0.0798520000
H  -0.5508410000  1.1732150000  1.0418930000
H  -0.5371370000  1.3953140000  -0.6979380000
H  1.0730070000  -0.9326630000  0.9711500000