21
charge=0, multiplicity=2, basis=def2-QZVPP, AUX_BASIS_CORR=rimp2-def2-QZVPPD, SCF_ALGORITHM=GDM, xc_grid=000099000590, mem_total=15000, num_basis=873, num_pairs=322056, num_threads=4
N  0.2690240000  -0.4434470000  -0.4658660000
C  -0.5675810000  -1.4666280000  0.1148640000
C  -1.9913600000  -1.1131390000  -0.2739240000
H  -0.2648170000  -2.4325080000  -0.3018920000
H  -0.4440490000  -1.5352960000  1.2020660000
C  -2.2061410000  0.3412000000  0.1447320000
H  -2.1058140000  -1.2134170000  -1.3564080000
H  -2.7182400000  -1.7734690000  0.2025220000
C  -1.0507660000  1.2051110000  -0.2865420000
H  -2.3063780000  0.4004840000  1.2322100000
H  -3.1289790000  0.7390040000  -0.2866540000
C  -0.4350200000  2.0573130000  0.5871550000
H  -0.9609110000  1.4021520000  -1.3481400000
H  -0.6014620000  1.9727230000  1.6549580000
H  0.2756130000  2.8004740000  0.2516460000
C  1.5632590000  -0.3459190000  -0.0223710000
O  2.0863490000  -1.2372210000  0.6281140000
C  2.3511410000  0.8566580000  -0.4776830000
H  2.5900030000  1.4805640000  0.3854020000
H  1.8161140000  1.4473710000  -1.2182980000
H  3.2937660000  0.5062420000  -0.8986420000