59
charge=1, multiplicity=1, basis=def2-QZVPP, mem_total=240000, AUX_BASIS_CORR=rimp2-def2-QZVPPD, SCF_ALGORITHM=GDM, xc_grid=000099000590, num_basis=2472, num_pairs=1679278, num_threads=64
H  -1.7441030000  -0.6439710000  0.4879350000
C  0.9839650000  0.4601100000  1.1341710000
C  0.8918370000  -1.6812810000  -0.4308700000
C  2.4246700000  -1.7150410000  -0.3415590000
C  3.0444380000  -0.3462730000  -0.1323280000
C  2.5021880000  0.2558020000  1.1586700000
H  2.7125700000  -2.3696850000  0.4881890000
H  2.7995160000  -2.1696440000  -1.2607350000
H  2.7989720000  0.3144060000  -0.9648780000
H  2.7683690000  -0.3984820000  1.9946810000
H  2.9689550000  1.2256420000  1.3310760000
N  0.3613730000  -0.8171020000  0.6654790000
O  -0.7904260000  -1.1043430000  1.1084220000
C  0.4763470000  0.7476420000  2.5436570000
H  1.0363320000  1.5938400000  2.9422080000
H  -0.5805040000  1.0105790000  2.5497600000
H  0.6295450000  -0.1073570000  3.2030390000
C  0.6034510000  1.6251390000  0.2067900000
H  -0.4766480000  1.7348710000  0.1391360000
H  1.0128540000  2.5415830000  0.6331210000
H  1.0117600000  1.5245490000  -0.7954080000
C  0.3472010000  -3.0944190000  -0.2356010000
H  -0.7232360000  -3.1461860000  -0.4239730000
H  0.8461860000  -3.7570450000  -0.9433120000
H  0.5433180000  -3.4579680000  0.7736220000
C  0.4196540000  -1.1360800000  -1.7896410000
H  0.7222600000  -1.8410820000  -2.5656480000
H  -0.6668190000  -1.0538480000  -1.8172350000
H  0.8541440000  -0.1686800000  -2.0303210000
N  4.4896430000  -0.4345380000  -0.1150580000
C  5.2441460000  0.6763570000  -0.3712640000
C  6.7380290000  0.4993360000  -0.3166680000
H  7.0469570000  -0.5171190000  -0.0719350000
H  7.1554650000  0.7772260000  -1.2847930000
H  7.1450180000  1.1878040000  0.4243240000
O  4.7168270000  1.7408120000  -0.6331870000
H  4.9389610000  -1.2922950000  0.1619680000
C  -2.8671150000  3.7308320000  -0.6104400000
C  -2.6973170000  2.8773950000  -1.6939650000
C  -2.7325000000  1.5057980000  -1.5112920000
C  -2.9471930000  0.9797180000  -0.2338110000
C  -3.1120400000  1.8437200000  0.8551160000
C  -3.0772990000  3.2124730000  0.6632280000
H  -2.8404370000  4.8031890000  -0.7583250000
H  -2.5426990000  3.2844650000  -2.6850740000
H  -2.6162800000  0.8352860000  -2.3518870000
H  -3.2755570000  1.4443530000  1.8485740000
H  -3.2171850000  3.8792590000  1.5044240000
C  -2.9631830000  -0.4695860000  -0.0175630000
O  -2.9896160000  -1.2309300000  -1.1312200000
C  -3.7648180000  -1.1517600000  1.0740350000
C  -3.6055290000  -2.5195840000  -0.8660270000
C  -3.6888860000  -2.6199710000  0.6505130000
H  -4.7888060000  -0.7671900000  1.0378900000
H  -3.3689200000  -0.9666370000  2.0712770000
H  -4.5866620000  -2.4993200000  -1.3433610000
H  -2.9922280000  -3.2813720000  -1.3430730000
H  -4.5518960000  -3.1982490000  0.9749860000
H  -2.7908750000  -3.0857040000  1.0577740000