37
charge=0, multiplicity=1, basis=def2-QZVPP, AUX_BASIS_CORR=rimp2-def2-QZVPPD, SCF_ALGORITHM=GDM, xc_grid=000099000590, mem_total=60000, num_basis=1515, num_pairs=801326, num_threads=16
C  -1.4403340000  -1.2349580000  0.0541800000
C  -1.0711270000  1.2977250000  -0.1458230000
C  0.3661430000  1.0089830000  -0.5898690000
C  0.9202790000  -0.2863830000  -0.0099860000
C  0.0114880000  -1.4413540000  -0.3932570000
H  0.3923140000  0.9371470000  -1.6823820000
H  1.0029080000  1.8454630000  -0.2952100000
H  0.9911680000  -0.1994530000  1.0740120000
H  0.0244570000  -1.5531970000  -1.4839630000
H  0.3811990000  -2.3749120000  0.0384470000
N  -1.8729870000  0.0883700000  -0.4514530000
O  -3.2091240000  0.3147000000  -0.0008540000
C  -2.3106830000  -2.2824120000  -0.6452990000
H  -1.9330770000  -3.2854880000  -0.4351290000
H  -3.3410700000  -2.2296390000  -0.2932740000
H  -2.2987890000  -2.1235460000  -1.7253610000
C  -1.5856240000  -1.4233470000  1.5724590000
H  -2.5696870000  -1.0870970000  1.8978340000
H  -1.4905660000  -2.4836610000  1.8167330000
H  -0.8319100000  -0.8870470000  2.1447980000
C  -1.6276360000  2.4261920000  -1.0175680000
H  -2.6211750000  2.7250750000  -0.6818460000
H  -0.9749190000  3.2996480000  -0.9593630000
H  -1.6883870000  2.1048060000  -2.0592250000
C  -1.1205080000  1.7513500000  1.3215620000
H  -0.7345270000  2.7698660000  1.3966740000
H  -2.1494090000  1.7494280000  1.6808040000
H  -0.5191820000  1.1315450000  1.9829920000
H  -3.7239320000  0.3396550000  -0.8118780000
N  2.2750740000  -0.5436140000  -0.4720060000
C  3.3625740000  -0.0130340000  0.1464980000
C  4.6995960000  -0.3265870000  -0.4839670000
H  5.1782540000  0.6110160000  -0.7686520000
H  5.3319710000  -0.8048000000  0.2643080000
H  4.6281890000  -0.9731660000  -1.3594550000
O  3.2723300000  0.6678640000  1.1517970000
H  2.4008930000  -1.0425000000  -1.3377840000