35
charge=0, multiplicity=1, basis=def2-QZVPP, mem_total=60000, AUX_BASIS_CORR=rimp2-def2-QZVPPD, SCF_ALGORITHM=GDM, xc_grid=000099000590, num_basis=1482, num_pairs=772851, num_threads=16
C  0.2585970000  1.1842250000  1.3120440000
N  -0.3790530000  -0.0686310000  0.9457320000
C  0.2578350000  -1.3065500000  1.3497200000
C  1.2555830000  -1.8712920000  0.3366840000
C  2.5230860000  -1.0707660000  0.2419160000
C  3.0021940000  1.0061590000  -0.2891390000
C  1.6510500000  1.3845620000  -0.8641680000
C  0.7022440000  2.0497920000  0.1316940000
C  3.4054900000  -1.1073190000  -0.8686590000
C  3.9281810000  0.1550310000  -0.9555480000
H  3.4114000000  1.8334250000  0.3062210000
H  2.9621190000  -0.7973170000  1.1930540000
C  -1.6231290000  -0.0838640000  0.3365140000
C  -2.1449520000  -1.2586420000  -0.2323550000
C  -3.3982690000  -1.2717210000  -0.8217650000
C  -4.1759790000  -0.1243290000  -0.8810340000
C  -3.6678620000  1.0439810000  -0.3317560000
C  -2.4183710000  1.0723700000  0.2652450000
H  -0.4017090000  1.7749760000  1.9595770000
H  1.1289890000  0.9318600000  1.9166470000
H  0.7758080000  -1.1295840000  2.2977780000
H  -0.5151620000  -2.0465360000  1.5621080000
H  0.7767910000  -1.9479170000  -0.6426200000
H  1.5150830000  -2.8942490000  0.6464320000
H  1.8346260000  2.1214600000  -1.6580940000
H  1.1702990000  0.5327290000  -1.3462200000
H  1.1803160000  2.9453400000  0.5452970000
H  -0.1739510000  2.3989180000  -0.4180780000
H  3.5567320000  -1.9602880000  -1.5247240000
H  4.9010780000  0.4573440000  -1.3334270000
H  -1.5634010000  -2.1694740000  -0.2325270000
H  -3.7648990000  -2.1974410000  -1.2503460000
H  -5.1522050000  -0.1391530000  -1.3481830000
H  -4.2539460000  1.9554600000  -0.3609380000
H  -2.0687840000  2.0010480000  0.6915560000