37
charge=0, multiplicity=2, basis=def2-QZVPP, AUX_BASIS_CORR=rimp2-def2-QZVPPD, SCF_ALGORITHM=GDM, xc_grid=000099000590, mem_total=60000, num_basis=1596, num_pairs=760545, num_threads=16
N  -2.6018910000  0.4020840000  0.1104410000
C  -1.9794300000  1.6495480000  0.1410340000
C  -3.8834410000  -0.0149050000  -0.2136800000
O  -4.7785100000  0.7863920000  -0.3518630000
O  -0.7804770000  1.7362420000  0.2210720000
C  -4.0636980000  -1.4996840000  -0.3499720000
C  -2.8956940000  2.8432490000  0.0971330000
F  -1.5486670000  -0.7721520000  0.0963740000
C  -0.1103690000  -2.2756380000  0.0771310000
H  -0.8669970000  -3.0492110000  0.0064300000
C  0.5266000000  -2.0558020000  1.4035880000
C  0.6411910000  -1.9297850000  -1.1589000000
C  1.3380890000  -0.7597500000  1.4710910000
C  2.2497250000  -0.6447300000  0.2642740000
C  1.4476430000  -0.6353110000  -1.0275360000
O  2.9781330000  0.5907150000  0.4101740000
C  4.1412190000  0.7072310000  -0.2457420000
C  4.7542570000  2.0574560000  -0.0150680000
O  4.6163900000  -0.1654880000  -0.9256850000
H  1.1940820000  -2.9125570000  1.5976990000
H  -0.2262170000  -2.0811350000  2.1942990000
H  -0.0363590000  -1.8773030000  -2.0139800000
H  1.3303860000  -2.7634450000  -1.3753940000
H  1.9316160000  -0.7342820000  2.3872530000
H  0.6658830000  0.1000500000  1.4761630000
H  2.9790440000  -1.4598380000  0.2457790000
H  0.7723830000  0.2218960000  -1.0001470000
H  2.1189650000  -0.5283570000  -1.8803020000
H  4.0838610000  2.8305280000  -0.3936950000
H  5.7135460000  2.1138150000  -0.5229150000
H  4.8815780000  2.2301730000  1.0542250000
H  -3.7409270000  -2.0102020000  0.5573760000
H  -5.1165630000  -1.6922160000  -0.5405020000
H  -3.4566320000  -1.8798360000  -1.1722100000
H  -3.4385870000  2.8734370000  -0.8471810000
H  -3.6458040000  2.7913410000  0.8851780000
H  -2.2728490000  3.7277550000  0.2117720000