43
charge=0, multiplicity=2, basis=def2-QZVPP, AUX_BASIS_CORR=rimp2-def2-QZVPPD, SCF_ALGORITHM=GDM, xc_grid=000099000590, mem_total=120000, num_basis=1830, num_pairs=1028562, num_threads=32
C  -1.5506180000  -0.9371800000  1.6265860000
C  -2.4004080000  -2.1362620000  1.1945980000
C  -2.5499220000  -2.2683980000  -0.3328210000
H  -3.3925980000  -2.0508210000  1.6468220000
H  -1.9588420000  -3.0570150000  1.5914560000
C  -3.2608960000  -1.1231130000  -0.9796220000
H  -3.0998720000  -3.1982860000  -0.5305500000
H  -1.5590030000  -2.3888960000  -0.7802290000
C  -0.1196040000  -1.0844460000  1.2066680000
H  -1.5977410000  -0.8558720000  2.7191770000
H  -1.9797360000  -0.0162010000  1.2292550000
C  0.6778040000  -0.1857070000  0.6187850000
H  0.3059600000  -2.0672460000  1.3983730000
H  2.9412630000  1.2752400000  0.8393330000
C  3.1235580000  0.3043450000  0.3948050000
C  2.0527250000  -0.5696400000  0.1987490000
C  2.3079790000  -1.8067330000  -0.3932370000
H  1.4829750000  -2.4814100000  -0.5871860000
C  3.5969350000  -2.1707160000  -0.7555960000
H  3.7727790000  -3.1341290000  -1.2193760000
C  4.6549500000  -1.2992560000  -0.5395010000
H  5.6611910000  -1.5807540000  -0.8254270000
C  4.4122360000  -0.0588200000  0.0362610000
H  5.2312950000  0.6297380000  0.2069040000
H  0.2329450000  3.4756090000  -2.1914000000
C  0.0715430000  3.0660350000  -1.2013960000
C  0.4770350000  1.7723040000  -0.9178210000
H  0.9578210000  1.1768900000  -1.6846940000
C  0.2647390000  1.2155780000  0.3446960000
C  -0.3331440000  2.0050680000  1.3252880000
H  -0.4720940000  1.6002330000  2.3199130000
C  -0.7345490000  3.3045300000  1.0458180000
H  -1.1952900000  3.9035160000  1.8223410000
C  -0.5396730000  3.8370290000  -0.2201720000
H  -0.8538920000  4.8502220000  -0.4399400000
C  -2.5212040000  -0.0757920000  -1.7376630000
H  -1.5411540000  -0.4263730000  -2.0658960000
H  -2.3480790000  0.8295080000  -1.1366400000
H  -3.0829630000  0.2492800000  -2.6209810000
C  -4.6806550000  -0.8565280000  -0.6099140000
H  -4.7630800000  -0.1630980000  0.2424100000
H  -5.2065450000  -1.7720120000  -0.3250820000
H  -5.2283230000  -0.3919230000  -1.4356520000