23
charge=0, multiplicity=1, basis=def2-QZVPP, AUX_BASIS_CORR=rimp2-def2-QZVPPD, SCF_ALGORITHM=GDM, xc_grid=000099000590, mem_total=15000, num_basis=987, num_pairs=367189, num_threads=4
C  -0.8732200000  0.9131910000  0.0000050000
C  0.4820430000  1.2379970000  -0.0000020000
C  1.4160720000  0.2107440000  -0.0000100000
C  1.0240780000  -1.1294450000  -0.0000120000
C  -0.3298040000  -1.4254340000  -0.0000030000
C  -1.2817510000  -0.4134750000  0.0000060000
H  -1.5946070000  1.7186170000  0.0000110000
H  -0.6686620000  -2.4541260000  -0.0000030000
O  -2.5852790000  -0.8192030000  0.0000130000
O  2.7392710000  0.5794980000  -0.0000210000
C  2.0577320000  -2.2222770000  -0.0000250000
H  1.5835070000  -3.2027860000  -0.0000170000
H  2.7009180000  -2.1731240000  -0.8851980000
H  2.7009430000  -2.1731240000  0.8851290000
C  0.9457980000  2.6657020000  -0.0000010000
H  1.5634450000  2.8763570000  -0.8759300000
H  0.0977020000  3.3508230000  -0.0000030000
H  1.5634390000  2.8763570000  0.8759330000
C  -3.5882900000  0.1716290000  0.0000390000
H  -4.5380760000  -0.3589120000  0.0000500000
H  -3.5281240000  0.8028490000  -0.8926000000
H  -3.5280930000  0.8028340000  0.8926850000
H  3.2997160000  -0.1999120000  0.0000190000