34
charge=0, multiplicity=1, basis=def2-QZVPP, AUX_BASIS_CORR=rimp2-def2-QZVPPD, SCF_ALGORITHM=GDM, xc_grid=000099000590, mem_total=60000, num_basis=1479, num_pairs=687089, num_threads=16
N  0.4757970000  1.7608280000  0.2278290000
C  -0.7625230000  1.1173220000  0.1444570000
C  -1.8842870000  1.7154980000  0.7352530000
C  -3.1193290000  1.1074220000  0.7003850000
C  -3.2806470000  -0.1291060000  0.0761940000
C  -2.1818500000  -0.7350710000  -0.5085310000
C  -0.9325580000  -0.1145700000  -0.4752520000
O  -4.5426770000  -0.6517730000  0.0967420000
C  -4.7463150000  -1.9028450000  -0.5192510000
C  1.5790700000  1.3914020000  -0.6375690000
C  2.2685060000  0.1140960000  -0.1854260000
C  2.9322210000  -0.6760690000  -1.1186360000
C  3.6092580000  -1.8213340000  -0.7248690000
C  3.6251310000  -2.1922530000  0.6131270000
C  2.9594900000  -1.4115270000  1.5481400000
C  2.2846630000  -0.2653430000  1.1509860000
C  2.5801810000  2.5444380000  -0.6732260000
H  -4.1440570000  -2.6852610000  -0.0455710000
H  2.9594210000  -1.7000560000  2.5926770000
H  -4.5115200000  -1.8660200000  -1.5883100000
H  -5.8012980000  -2.1363040000  -0.3920250000
H  4.1193350000  -2.4282280000  -1.4635710000
H  4.1478020000  -3.0888890000  0.9237330000
H  2.1149280000  3.4514910000  -1.0682940000
H  3.4298870000  2.2922850000  -1.3073480000
H  2.9572200000  2.7478140000  0.3316660000
H  2.9126990000  -0.3957450000  -2.1672550000
H  1.7465780000  0.3371970000  1.8720650000
H  -1.7752840000  2.6740180000  1.2318880000
H  -0.0916960000  -0.6223620000  -0.9259360000
H  -2.2679330000  -1.6952900000  -0.9975220000
H  -3.9832900000  1.5748700000  1.1557870000
H  1.2121960000  1.2232340000  -1.6610980000
H  0.3997800000  2.7532830000  0.3856860000