21
charge=0, multiplicity=2, basis=def2-QZVPP, AUX_BASIS_CORR=rimp2-def2-QZVPPD, SCF_ALGORITHM=GDM, xc_grid=000099000590, mem_total=15000, num_basis=846, num_pairs=305206, num_threads=4
C  0.6159510000  -0.3591660000  0.6385460000
C  -0.3766050000  -1.4689080000  0.7343020000
C  -1.3475780000  -1.3589040000  -0.4426660000
H  -0.9266370000  -1.3646990000  1.6738230000
H  0.1317100000  -2.4391120000  0.7514460000
C  -1.8777940000  0.0716270000  -0.4457470000
H  -0.8082920000  -1.5607960000  -1.3727050000
H  -2.1567070000  -2.0894760000  -0.3704840000
C  -0.7501340000  1.0712830000  -0.3301970000
H  -2.5666760000  0.2144530000  0.3933650000
H  -2.4463160000  0.2707930000  -1.3593810000
C  -0.8683920000  2.2175090000  0.4061800000
H  -0.1420210000  3.0174680000  0.3319110000
H  -1.6517460000  2.3287120000  1.1476840000
H  -0.0598490000  1.0800060000  -1.1709930000
O  1.6157950000  -0.6079560000  -0.2594810000
H  0.9420830000  0.1537190000  1.5428340000
C  2.6203040000  0.3843050000  -0.3106580000
H  2.2125230000  1.3388350000  -0.6574670000
H  3.0721990000  0.5295700000  0.6769330000
H  3.3788550000  0.0376980000  -1.0096820000