23
charge=0, multiplicity=2, basis=def2-QZVPP, AUX_BASIS_CORR=rimp2-def2-QZVPPD, SCF_ALGORITHM=GDM, xc_grid=000099000590, mem_total=15000, num_basis=987, num_pairs=359432, num_threads=4
H  -2.5112870000  -2.1532400000  -0.7821930000
C  -3.3229520000  0.9606910000  0.2563940000
H  -3.4141550000  1.5930610000  -0.6339670000
H  -2.9275170000  1.5621190000  1.0762840000
N  -2.4781800000  -0.1922070000  0.0159990000
C  -1.0886110000  -0.0325210000  0.0077260000
C  -0.2364380000  -1.1292420000  0.1358350000
C  -0.5073350000  1.2361370000  -0.1320980000
C  1.1442640000  -0.9748360000  0.1129720000
H  -0.6504270000  -2.1161910000  0.2868860000
C  0.8639260000  1.3902790000  -0.1458900000
H  -1.1283010000  2.1137410000  -0.2462530000
C  1.7048900000  0.2874680000  -0.0282980000
H  1.7656170000  -1.8527000000  0.2213800000
H  1.3088120000  2.3709220000  -0.2576930000
H  -4.3171990000  0.6150100000  0.5328180000
C  -3.0729210000  -1.4002200000  -0.2537300000
H  -4.1484510000  -1.4454620000  -0.2105800000
O  3.0436100000  0.5444900000  -0.0594940000
C  3.9300960000  -0.5455690000  0.0631710000
H  4.9331170000  -0.1277880000  0.0108480000
H  3.7958210000  -1.2641850000  -0.7519000000
H  3.8028370000  -1.0588810000  1.0218480000