24
charge=1, multiplicity=2, basis=def2-QZVPP, AUX_BASIS_CORR=rimp2-def2-QZVPPD, SCF_ALGORITHM=GDM, xc_grid=000099000590, mem_total=15000, num_basis=963, num_pairs=413175, num_threads=4
N  1.5028790000  0.0000050000  0.0000120000
C  1.1686460000  -1.4023240000  0.0357720000
C  -0.4078800000  -1.4305100000  0.1373130000
C  -0.9533050000  -0.0000050000  -0.0000050000
C  1.1686310000  0.6701790000  -1.2323280000
C  -0.4079090000  0.5963670000  -1.3075170000
C  -2.4798730000  -0.0000510000  0.0000010000
H  -2.8698790000  -0.4505620000  0.9142580000
C  1.1686040000  0.7321240000  1.1965780000
C  -0.4079250000  0.8342210000  1.1701770000
H  1.6366200000  -1.8666080000  0.9018720000
H  1.5246930000  -1.8783410000  -0.8754660000
H  -0.6989780000  -1.8611280000  1.0957420000
H  -0.7970420000  -2.0742790000  -0.6515610000
H  1.6366000000  0.1522360000  -2.0674510000
H  1.5247010000  1.6973370000  -1.1889840000
H  -0.6990070000  -0.0183360000  -2.1596660000
H  -0.7970560000  1.6014410000  -1.4705860000
H  -2.8699050000  -0.5665820000  -0.8472600000
H  -2.8699450000  1.0169490000  -0.0669740000
H  1.6366040000  1.7143230000  1.1656580000
H  1.5246030000  0.1809510000  2.0644420000
H  -0.6989800000  1.8795550000  1.0637940000
H  -0.7971150000  0.4730060000  2.1221540000