27
charge=-1, multiplicity=1, basis=def2-QZVPP, mem_total=30000, AUX_BASIS_CORR=rimp2-def2-QZVPPD, SCF_ALGORITHM=GDM, xc_grid=000099000590, num_basis=1134, num_pairs=513703, num_threads=8
C  -0.4130660000  -0.5632270000  -0.5455270000
C  1.0330720000  -0.6301520000  -0.9833140000
C  -0.3587470000  0.6537420000  -0.0141290000
C  1.9422620000  -1.5470240000  -0.1731670000
H  2.9416460000  -1.5611070000  -0.6245880000
C  1.1434270000  0.8965790000  -0.3325390000
C  2.0164320000  -0.8794130000  1.2133780000
H  1.1177480000  -1.1321720000  1.7861150000
C  2.0466770000  0.6219030000  0.9153990000
H  1.7521260000  1.2379690000  1.7720780000
H  3.0511320000  0.9340490000  0.6108400000
H  1.6007270000  -2.5892160000  -0.1128410000
H  2.8777150000  -1.2251980000  1.7963010000
O  1.4711460000  1.9388340000  -1.0588870000
C  -1.6170730000  -1.4506190000  -0.5692570000
H  -1.3729560000  -2.4718420000  -0.2498630000
H  -2.0128690000  -1.5408350000  -1.5913270000
C  -1.5077140000  1.4052160000  0.5655670000
H  -1.4113230000  1.4804890000  1.6580620000
H  -1.5131940000  2.4319920000  0.1851860000
C  -2.8089470000  0.6745450000  0.1937570000
H  -3.6489480000  1.0461190000  0.7920410000
H  -3.0439630000  0.8934050000  -0.8542630000
C  -2.6855260000  -0.8480680000  0.3595380000
H  -2.4068110000  -1.0631210000  1.3981300000
H  -3.6576930000  -1.3239970000  0.1871010000
H  1.2127180000  -0.6280880000  -2.0601020000