21
charge=0, multiplicity=2, basis=def2-QZVPP, AUX_BASIS_CORR=rimp2-def2-QZVPPD, SCF_ALGORITHM=GDM, xc_grid=000099000590, mem_total=15000, num_basis=900, num_pairs=338640, num_threads=4
C  -0.8137390000  -1.4581340000  -0.1613300000
C  -2.1672070000  -1.1771150000  -0.0052740000
C  -2.6013220000  0.1361640000  0.1318610000
C  -1.6883350000  1.1858060000  0.1147560000
C  -0.3405360000  0.9044620000  -0.0371480000
C  0.0933070000  -0.4116170000  -0.1745820000
H  -0.4728180000  -2.4820520000  -0.2648110000
H  -2.8873260000  -1.9864820000  0.0139960000
H  -3.6573940000  0.3430020000  0.2584010000
H  -2.0304560000  2.2087890000  0.2265880000
C  0.8306970000  1.8520790000  -0.0991570000
C  2.0295020000  0.9309120000  0.1832050000
H  0.7539200000  2.6769620000  0.6116840000
H  0.9042250000  2.2928510000  -1.0997740000
C  1.5990770000  -0.4691720000  -0.3509620000
H  2.1852180000  0.8561290000  1.2625610000
H  2.9617010000  1.2750440000  -0.2658720000
C  2.2757440000  -1.6092760000  0.3138180000
H  1.9620420000  -1.9208710000  1.3032090000
H  3.1598770000  -2.0659210000  -0.1109160000
H  1.8178840000  -0.5020950000  -1.4261870000