46
charge=0, multiplicity=1, basis=def2-QZVPP, mem_total=120000, AUX_BASIS_CORR=rimp2-def2-QZVPPD, SCF_ALGORITHM=GDM, xc_grid=000099000590, num_basis=2001, num_pairs=1139979, num_threads=32
C  -0.1981720000  -2.4512140000  -0.0938700000
H  -0.1888880000  -3.4123330000  -0.6100960000
H  -0.3538540000  -2.6625750000  0.9842200000
C  -1.3517540000  -1.6097250000  -0.5912500000
C  0.1162270000  0.4026810000  -0.4994180000
H  0.4971660000  0.5306910000  -1.5160610000
H  0.0889600000  1.3878870000  -0.0435640000
C  1.1024710000  -0.4774660000  0.2736120000
H  0.7534870000  -0.5350660000  1.3240260000
N  1.0808120000  -1.8092070000  -0.3165050000
C  -2.3921570000  0.5354180000  -0.1575590000
C  -2.5481060000  -2.2120010000  -0.9462160000
H  -3.0605660000  -1.7869890000  -1.7917780000
H  -2.6596670000  -3.2879200000  -0.8447100000
C  -3.5561200000  0.0078120000  0.4215620000
H  -3.8895040000  0.5739200000  1.2906540000
C  -4.1907900000  -1.2014490000  0.1673120000
C  -1.2630440000  -0.2194100000  -0.5316180000
C  -4.9978120000  -1.8631800000  1.2536320000
H  -4.9537020000  -2.9498410000  1.1561940000
H  -4.6294500000  -1.6017050000  2.2463030000
H  -6.0534430000  -1.5790490000  1.1892000000
H  -4.5723320000  -1.3833320000  -0.8208320000
C  2.4943030000  0.1273260000  0.2952410000
C  2.1919910000  -2.6395770000  0.1055430000
H  2.0324780000  -3.6489200000  -0.2794040000
H  2.2467770000  -2.7137820000  1.2071920000
C  3.4813850000  -2.0627080000  -0.4454910000
H  3.4728310000  -2.1603600000  -1.5352770000
C  3.6205000000  -0.6140200000  -0.0605880000
H  4.3399580000  -2.6278070000  -0.0737560000
C  4.8764190000  -0.0107660000  -0.0256880000
H  5.7470420000  -0.5957670000  -0.3031420000
C  2.6606810000  1.4474150000  0.7148940000
H  1.7986170000  2.0229040000  1.0304260000
C  5.0290680000  1.3070900000  0.3667930000
H  6.0135860000  1.7585270000  0.3893930000
C  3.9116640000  2.0383480000  0.7493530000
H  4.0158540000  3.0651150000  1.0786500000
C  -2.2467600000  2.0094250000  0.0571550000
O  -2.5680530000  2.6112900000  1.0503110000
O  -1.7518380000  2.6181080000  -1.0318360000
C  -1.5813140000  4.0340090000  -0.9303780000
H  -0.8792890000  4.2773940000  -0.1322570000
H  -2.5348290000  4.5188120000  -0.7226880000
H  -1.1898600000  4.3514350000  -1.8930830000