27
charge=-1, multiplicity=1, basis=def2-QZVPP, mem_total=30000, AUX_BASIS_CORR=rimp2-def2-QZVPPD, SCF_ALGORITHM=GDM, xc_grid=000099000590, num_basis=1188, num_pairs=463928, num_threads=8
C  -1.8834560000  0.3047790000  -0.1110060000
C  -0.9212200000  1.4642390000  -0.2080500000
O  -1.3448780000  2.5951510000  -0.0212720000
C  0.5071370000  1.1661880000  -0.4681950000
C  1.2429190000  0.7245750000  0.8582740000
C  2.6167140000  0.1372350000  0.7399520000
C  3.1380020000  -0.0416420000  -0.4591080000
O  4.4113100000  -0.5925270000  -0.7285250000
C  5.1455380000  -0.9675430000  0.4050400000
H  2.7128160000  0.1969070000  -1.4418690000
H  6.0965840000  -1.3676660000  0.0395770000
H  5.3190680000  -0.1148310000  1.0712250000
H  4.6144460000  -1.7226880000  0.9960620000
C  -1.4695390000  -1.0247210000  -0.1875910000
C  -2.3967810000  -2.0541570000  -0.0977620000
C  -3.7456270000  -1.7687770000  0.0646120000
C  -4.1658390000  -0.4457080000  0.1429360000
C  -3.2391200000  0.5806280000  0.0592850000
H  -0.4195390000  -1.2611830000  -0.3013200000
H  -2.0608370000  -3.0832250000  -0.1504280000
H  -4.4677000000  -2.5747960000  0.1333100000
H  -5.2178740000  -0.2171440000  0.2725250000
H  -3.5381480000  1.6193460000  0.1245330000
H  0.9908250000  2.0607730000  -0.8597980000
H  0.6084620000  0.3663760000  -1.2041050000
H  1.2629240000  1.6118540000  1.5018890000
H  0.5951390000  0.0146910000  1.3864440000