42
charge=-1, multiplicity=1, basis=def2-QZVPP, mem_total=60000, AUX_BASIS_CORR=rimp2-def2-QZVPPD, SCF_ALGORITHM=GDM, xc_grid=000099000590, num_basis=1665, num_pairs=909429, num_threads=16
C  -3.3584860000  0.4742480000  -0.2509130000
C  -3.5449870000  -1.0346740000  -0.1341420000
C  -2.4143790000  -1.7490820000  -0.9053140000
H  -4.5390810000  -1.3098750000  -0.5210770000
H  -3.5220530000  -1.3402880000  0.9184140000
C  -1.0347790000  -1.3759010000  -0.4334900000
H  -2.5506980000  -1.4828130000  -1.9719170000
H  -2.5635040000  -2.8366820000  -0.8421720000
C  -0.8640350000  0.1328690000  -0.4662810000
C  -0.6299250000  -2.1041500000  0.8271560000
H  -1.2262890000  -1.9336770000  1.7669790000
H  0.4088750000  -1.8965380000  1.1172270000
H  -0.6842200000  -3.1887100000  0.6607250000
C  0.5391280000  0.5869520000  -0.0306680000
C  1.6376580000  -0.0087960000  -0.9161640000
H  0.7247800000  0.2741780000  1.0019660000
H  0.6106490000  1.6795070000  -0.0412820000
C  3.0317780000  0.2142460000  -0.3934920000
H  1.5516770000  0.4330650000  -1.9187310000
H  1.4148850000  -1.0713920000  -1.0285600000
C  3.7695540000  -0.8125580000  0.0314260000
C  5.1509270000  -0.7899070000  0.6165890000
H  3.3150850000  -1.7983790000  -0.0351650000
H  5.5850370000  0.2097840000  0.6490140000
H  5.8311910000  -1.4289950000  0.0429300000
H  5.1458360000  -1.1788880000  1.6407440000
C  3.4897760000  1.6483110000  -0.3673970000
H  2.8887500000  2.2274110000  0.3394740000
H  3.3394330000  2.1058870000  -1.3505740000
H  4.5384660000  1.7672080000  -0.0945800000
C  -1.9912270000  0.9923040000  0.2392780000
H  -4.1550000000  1.0168490000  0.2789340000
H  -3.4562630000  0.7430710000  -1.3132250000
C  -1.9246020000  0.9088780000  1.7674370000
H  -2.7252420000  1.5112620000  2.2170420000
H  -0.9733210000  1.2927230000  2.1450690000
H  -2.0285030000  -0.1146510000  2.1224990000
C  -1.9048090000  2.4718340000  -0.1607630000
H  -2.7951220000  3.0158450000  0.1787780000
H  -1.8434480000  2.5761790000  -1.2488200000
H  -1.0337420000  2.9675980000  0.2751750000
H  -0.9677370000  0.4328820000  -1.5284380000