31
charge=0, multiplicity=2, basis=def2-QZVPP, AUX_BASIS_CORR=rimp2-def2-QZVPPD, SCF_ALGORITHM=GDM, xc_grid=000099000590, mem_total=60000, num_basis=1483, num_pairs=798252, num_threads=16
C  -0.7007910000  1.8408750000  -1.2251570000
C  0.6752460000  1.9201980000  -1.2249430000
C  1.4042960000  1.9527920000  -0.0223930000
C  0.6772760000  1.9184570000  1.1808910000
C  -0.6989290000  1.8352220000  1.1864160000
C  -1.4033150000  1.7865820000  -0.0181040000
H  -1.2381440000  1.8080420000  -2.1654300000
H  -1.2264310000  1.7885430000  2.1309120000
C  -0.1044910000  -1.6250050000  -0.6908370000
C  -0.1402270000  -1.5868930000  0.6939920000
N  -1.2033630000  -1.8291070000  1.4345610000
C  -2.3096640000  -2.1341770000  0.7527290000
C  -2.3803680000  -2.1994980000  -0.6375000000
C  -1.2478050000  -1.9371140000  -1.3963060000
C  1.2517810000  -1.2371730000  -1.1582930000
C  1.2141220000  -1.1826290000  1.2034460000
H  -3.1940850000  -2.3332040000  1.3483090000
H  -3.3222720000  -2.4442020000  -1.1104960000
H  -1.2544220000  -1.9657840000  -2.4786740000
O  1.6040940000  -1.0078410000  2.3169140000
O  1.6665720000  -1.1086760000  -2.2741290000
N  1.9803810000  -1.0116480000  0.0258150000
O  3.2276450000  -0.5854870000  0.0340960000
H  1.2128430000  1.9237150000  2.1225570000
H  1.2094340000  1.9321180000  -2.1674420000
C  2.8515970000  1.9328770000  -0.0208060000
H  3.3404980000  2.2543960000  -0.9370650000
H  3.3380430000  2.2810520000  0.8870630000
H  3.1578090000  0.6490710000  0.0048550000
S  -3.1631290000  1.6451380000  -0.0903430000
H  -3.3711930000  1.5782790000  1.2344000000