17
charge=0, multiplicity=1, basis=def2-QZVPP, AUX_BASIS_CORR=rimp2-def2-QZVPPD, SCF_ALGORITHM=GDM, xc_grid=000099000590, mem_total=7500, num_basis=766, num_pairs=252775, num_threads=2
N  -0.6125330000  -1.0914070000  -0.2781480000
H  0.0703190000  -1.5260330000  -0.8859580000
C  -0.1190980000  -0.0615020000  0.6221590000
H  -0.7454990000  -0.0961740000  1.5184990000
C  1.3210890000  -0.3503810000  1.0265660000
C  -0.2717700000  1.3501590000  0.0217970000
H  1.7048120000  0.4785550000  1.6160810000
H  1.3497800000  -1.2527610000  1.6369160000
S  2.4608280000  -0.6694550000  -0.3626670000
O  0.6900770000  2.0582980000  -0.2114390000
H  2.3990710000  0.5765430000  -0.8636940000
N  -1.5485600000  1.7211120000  -0.1960080000
H  -1.7196970000  2.6250470000  -0.6065870000
H  -2.3165150000  1.0932580000  0.0128670000
C  -1.9122210000  -1.4206300000  -0.3830600000
H  -2.0947070000  -2.2560410000  -1.0757080000
O  -2.8152210000  -0.8639130000  0.2170100000