40
charge=1, multiplicity=1, basis=def2-QZVPP, mem_total=60000, AUX_BASIS_CORR=rimp2-def2-QZVPPD, SCF_ALGORITHM=GDM, xc_grid=000099000590, num_basis=1605, num_pairs=915338, num_threads=16
C  3.3208810000  -0.1847070000  -0.6075140000
C  2.2393120000  -1.2323370000  -0.8240630000
C  1.0345740000  -1.0862510000  0.1836680000
H  1.8498370000  -1.1561930000  -1.8434270000
H  2.6188950000  -2.2490350000  -0.7045750000
C  1.5020630000  -1.4210260000  1.6151650000
H  1.7582680000  -2.4801380000  1.6519910000
H  0.7086840000  -1.2443540000  2.3429490000
H  2.3782740000  -0.8569230000  1.9247780000
C  0.6383300000  0.3322180000  0.0309970000
C  1.5701370000  1.3864090000  0.4319040000
C  2.7311140000  1.2150000000  -0.6336370000
H  4.0692130000  -0.2765030000  -1.3979900000
H  3.8476670000  -0.3550950000  0.3336410000
C  1.0467020000  2.8148940000  0.4630750000
C  -0.1127640000  -2.0143140000  -0.2327440000
C  -1.4412560000  -1.6196370000  0.4236460000
H  0.1475710000  -3.0424480000  0.0212420000
H  -0.2219620000  -1.9935860000  -1.3202670000
C  -0.6446860000  0.6018970000  -0.5795360000
C  -1.6856670000  -0.0950470000  0.3986320000
H  -0.7357250000  0.0865310000  -1.5400530000
H  -0.8681230000  1.6566750000  -0.7021860000
H  -1.4696430000  -1.9612080000  1.4589830000
H  -2.2528060000  -2.1378540000  -0.0865850000
C  -3.0815000000  0.3098310000  -0.0150570000
H  -1.5149960000  0.3146700000  1.3962140000
C  -3.8785600000  0.9094440000  0.8615760000
H  -3.5498230000  1.1410590000  1.8681240000
H  -4.8961370000  1.1789220000  0.6063590000
C  -3.5073890000  -0.0013650000  -1.4209110000
H  -3.3438180000  -1.0511790000  -1.6775750000
H  -2.9549230000  0.5997260000  -2.1499540000
H  -4.5656480000  0.2133550000  -1.5601710000
H  2.3368700000  1.4541410000  -1.6257500000
H  3.4695220000  1.9803910000  -0.3908250000
H  0.1880730000  2.9186450000  1.1283440000
H  0.7615500000  3.1685470000  -0.5289290000
H  1.8306480000  3.4758880000  0.8328690000
H  2.0207810000  1.1259120000  1.3915930000