22
charge=0, multiplicity=1, basis=def2-QZVPP, AUX_BASIS_CORR=rimp2-def2-QZVPPD, SCF_ALGORITHM=GDM, xc_grid=000099000590, mem_total=15000, num_basis=876, num_pairs=341136, num_threads=4
C  0.5297710000  -1.3620770000  0.3994210000
C  -0.5297710000  -1.3620770000  -0.3994210000
C  1.8652860000  -0.9045980000  -0.0777250000
H  2.7051640000  -1.3567000000  0.4560830000
H  1.9857150000  -1.1263590000  -1.1421650000
C  -1.8652860000  -0.9045980000  0.0777250000
H  -1.9857150000  -1.1263600000  1.1421650000
H  -2.7051630000  -1.3567000000  -0.4560830000
C  -1.8798060000  0.6315930000  -0.1311090000
H  -1.9663250000  0.8424700000  -1.2026380000
H  -2.7845910000  1.0382900000  0.3312350000
C  -0.6531260000  1.3846460000  0.4247270000
H  -0.9611540000  2.4255560000  0.5556290000
H  -0.4350550000  1.0197590000  1.4331850000
C  1.8798060000  0.6315930000  0.1311090000
H  2.7845910000  1.0382900000  -0.3312350000
H  1.9663250000  0.8424690000  1.2026380000
C  0.6531260000  1.3846460000  -0.4247260000
H  0.9611540000  2.4255560000  -0.5556280000
H  0.4350550000  1.0197590000  -1.4331850000
H  -0.3697650000  -1.3403970000  -1.4764660000
H  0.3697650000  -1.3403980000  1.4764650000