41
charge=0, multiplicity=2, basis=def2-QZVPP, AUX_BASIS_CORR=rimp2-def2-QZVPPD, SCF_ALGORITHM=GDM, xc_grid=000099000590, mem_total=60000, num_basis=1770, num_pairs=1004857, num_threads=16
C  -1.6066280000  -1.2186430000  1.6780930000
C  -2.4551480000  -2.4442900000  1.3431000000
C  -2.6243320000  -2.3400440000  -0.1738550000
H  -3.4057400000  -2.4665190000  1.8786840000
H  -1.9117840000  -3.3597000000  1.5937130000
C  -1.2758750000  -1.8396880000  -0.6981820000
H  -3.4065590000  -1.6123510000  -0.4074790000
H  -2.8901010000  -3.2786610000  -0.6595040000
C  -0.5714730000  -1.1633910000  0.5347990000
H  -1.1186660000  -1.2814350000  2.6528290000
H  -2.2251860000  -0.3192110000  1.6855520000
C  0.0893110000  0.1655940000  0.2851660000
H  1.8155800000  -1.1226980000  1.9397750000
C  2.3151990000  -0.5486480000  1.1691470000
C  1.5520320000  0.2010020000  0.2607550000
C  2.2460770000  0.9434160000  -0.7079780000
H  1.6837900000  1.5104720000  -1.4388610000
C  3.6293110000  0.9348190000  -0.7645860000
H  4.1365470000  1.5043430000  -1.5343810000
C  4.3658540000  0.1931980000  0.1509390000
H  5.4480640000  0.1887070000  0.1077260000
C  3.6991750000  -0.5457790000  1.1199520000
H  4.2616240000  -1.1225230000  1.8446050000
H  -0.3637240000  4.7622210000  0.2886250000
C  -0.8314990000  3.8040030000  0.0953790000
C  -0.1054610000  2.6442030000  0.2849840000
H  0.9133000000  2.7120970000  0.6408740000
C  -0.6726700000  1.3693140000  0.0602460000
C  -2.0247430000  1.3443040000  -0.3450550000
H  -2.5165020000  0.4011450000  -0.5264590000
C  -2.7446300000  2.5085380000  -0.5398610000
H  -3.7769250000  2.4475010000  -0.8640010000
C  -2.1561600000  3.7493870000  -0.3256920000
H  -2.7233440000  4.6595940000  -0.4759680000
O  -0.5486120000  -2.9618740000  -1.1637310000
C  0.6364490000  -2.6312220000  -1.8516990000
H  1.0435370000  -3.5588830000  -2.2516580000
H  1.3816070000  -2.1694470000  -1.1956660000
H  0.4291960000  -1.9420430000  -2.6806590000
H  -1.3874440000  -1.1379790000  -1.5324470000
H  0.2129070000  -1.8760790000  0.7906290000