37
charge=0, multiplicity=2, basis=def2-QZVPP, AUX_BASIS_CORR=rimp2-def2-QZVPPD, SCF_ALGORITHM=GDM, xc_grid=000099000590, mem_total=60000, num_basis=1582, num_pairs=755972, num_threads=16
O  4.5776550000  -0.7426680000  0.0498060000
C  3.4911850000  -0.8913750000  -0.3582700000
C  2.8426870000  -2.0762830000  -1.0193670000
C  1.4767590000  -2.4474450000  -0.4380670000
Cl  1.9948330000  0.7811500000  -0.1599520000
C  0.3854960000  2.1801190000  0.1109710000
H  3.5500490000  -2.9099530000  -0.9482920000
H  2.7403060000  -1.8042210000  -2.0740390000
H  0.7704300000  -1.6399470000  -0.6310390000
C  1.5240230000  -2.7447860000  1.0551990000
H  1.1173200000  -3.3242530000  -0.9831280000
C  -0.7969680000  1.2885990000  0.1546290000
C  0.5265440000  3.0756780000  -1.0913140000
C  0.7623050000  2.8594610000  1.4031440000
C  -1.7239610000  1.2372840000  -0.8820280000
C  -1.0031670000  0.4191740000  1.2383390000
H  0.4635270000  2.5211680000  -2.0269010000
H  1.4893920000  3.5855250000  -1.0673560000
H  -0.2599170000  3.8402870000  -1.0885780000
H  0.0102590000  3.6203380000  1.6445860000
H  1.7299780000  3.3526500000  1.3093190000
H  0.8169940000  2.1679240000  2.2416540000
C  -2.8143710000  0.3727810000  -0.8548690000
C  -2.9911330000  -0.4768920000  0.2279650000
C  -2.0718850000  -0.4462000000  1.2782260000
H  -0.2920650000  0.4007940000  2.0534350000
H  -3.5094910000  0.3770010000  -1.6824680000
O  -4.0117460000  -1.3633150000  0.3556410000
H  -2.2187540000  -1.1193690000  2.1133900000
H  -1.6130920000  1.8853190000  -1.7407190000
H  1.8331910000  -1.8615080000  1.6192970000
H  2.2259420000  -3.5520980000  1.2812450000
H  0.5399040000  -3.0416030000  1.4215430000
C  -4.9673020000  -1.4366050000  -0.6820330000
H  -5.6822340000  -2.1986070000  -0.3803520000
H  -4.5043100000  -1.7291950000  -1.6294790000
H  -5.4881510000  -0.4829940000  -0.8116460000