10
charge=0, multiplicity=1, basis=def2-QZVPP, AUX_BASIS_CORR=rimp2-def2-QZVPPD, SCF_ALGORITHM=GDM, xc_grid=000099000590, mem_total=3750, num_basis=475, num_pairs=106201, num_threads=1
C  0.3884620000  1.2616640000  -0.0040100000
C  1.6067770000  0.7318660000  0.1271540000
C  0.3884620000  -1.2616640000  -0.0040100000
C  1.6067770000  -0.7318660000  0.1271540000
S  -0.8135180000  0.0000000000  -0.3755670000
O  -2.0179970000  0.0000000000  0.5221430000
H  0.0940530000  -2.2989120000  -0.0448860000
H  2.5146460000  -1.3132670000  0.2219830000
H  0.0940530000  2.2989120000  -0.0448860000
H  2.5146460000  1.3132670000  0.2219830000