13
charge=0, multiplicity=2, basis=def2-QZVPP, AUX_BASIS_CORR=rimp2-def2-QZVPPD, SCF_ALGORITHM=GDM, xc_grid=000099000590, mem_total=3750, num_basis=579, num_pairs=147127, num_threads=1
N  0.0000010000  -0.0001880000  0.8264330000
C  -1.1630250000  -0.3064750000  0.0908120000
C  1.1629940000  0.3064160000  0.0908980000
O  1.3621940000  1.4412310000  -0.2572410000
O  -1.3624290000  -1.4412070000  -0.2574740000
C  2.0704050000  -0.8620170000  -0.1383690000
C  -2.0701960000  0.8621660000  -0.1383530000
H  2.4577460000  -1.2118730000  0.8205260000
H  2.8913500000  -0.5591680000  -0.7852590000
H  1.5077250000  -1.6855290000  -0.5839540000
H  -1.5073280000  1.6856280000  -0.5837930000
H  -2.4575270000  1.2119690000  0.8205660000
H  -2.8911620000  0.5595570000  -0.7853290000