17
charge=0, multiplicity=1, basis=def2-QZVPP, AUX_BASIS_CORR=rimp2-def2-QZVPPD, SCF_ALGORITHM=GDM, xc_grid=000099000590, mem_total=7500, num_basis=766, num_pairs=252775, num_threads=2
N  -0.6125100000  -1.0913920000  -0.2782010000
H  0.0703660000  -1.5260450000  -0.8859660000
C  -0.1191020000  -0.0615000000  0.6221440000
H  -0.7455230000  -0.0962020000  1.5184680000
C  1.3210820000  -0.3503520000  1.0265780000
C  -0.2718110000  1.3501560000  0.0217850000
H  1.7047820000  0.4785900000  1.6161000000
H  1.3497820000  -1.2527260000  1.6369380000
S  2.4608630000  -0.6694190000  -0.3626220000
O  0.6900230000  2.0582730000  -0.2115770000
N  -1.5486190000  1.7211340000  -0.1958620000
H  -1.7197880000  2.6250140000  -0.6065490000
H  -2.3165510000  1.0932310000  0.0129620000
C  -1.9121790000  -1.4206700000  -0.3830910000
H  -2.0946590000  -2.2560810000  -1.0757380000
O  -2.8151890000  -0.8639780000  0.2169980000
H  2.3990560000  0.5765630000  -0.8636860000