63
charge=1, multiplicity=1, basis=def2-QZVPP, mem_total=240000, AUX_BASIS_CORR=rimp2-def2-QZVPPD, SCF_ALGORITHM=GDM, xc_grid=000099000590, num_basis=2646, num_pairs=1792831, num_threads=64
C  2.4275150000  1.5406050000  -0.7820710000
C  1.6393740000  0.8192520000  1.6496420000
C  0.2854920000  1.4377140000  1.2946810000
C  0.3951180000  2.6219040000  0.3376910000
C  1.0422650000  2.1617020000  -0.9646710000
H  -0.3552610000  0.6810450000  0.8390930000
H  -0.1910370000  1.7520800000  2.2254030000
H  1.0142710000  3.3972800000  0.7928700000
H  0.3760850000  1.4409610000  -1.4362270000
H  1.1436750000  3.0054800000  -1.6502690000
N  2.4086540000  0.5804850000  0.3775770000
O  3.3753660000  -0.2179840000  0.4347360000
C  2.8035280000  0.7711810000  -2.0461390000
H  2.0902010000  -0.0254880000  -2.2537380000
H  2.7771130000  1.4631650000  -2.8879340000
H  3.8073430000  0.3538990000  -1.9828900000
C  3.5109540000  2.5982940000  -0.5152920000
H  4.4553060000  2.1209770000  -0.2522870000
H  3.6628570000  3.1763120000  -1.4276660000
H  3.2398290000  3.2938440000  0.2755610000
C  1.4341400000  -0.5015150000  2.3805800000
H  2.3820550000  -0.9867730000  2.6086450000
H  0.9249300000  -0.2944990000  3.3219970000
H  0.8125530000  -1.1773700000  1.7997400000
C  2.4879400000  1.7377350000  2.5473940000
H  2.6038960000  2.7422590000  2.1485930000
H  2.0002720000  1.8191250000  3.5193730000
H  3.4787080000  1.3082860000  2.6986350000
C  2.7450670000  -2.4831770000  -0.6521340000
H  2.8997690000  -2.1775760000  -1.6946170000
H  3.0858290000  -1.4255940000  -0.0844030000
O  3.5904770000  -3.4562100000  -0.2157420000
C  4.9310590000  -3.3487440000  -0.6830860000
H  5.4615560000  -4.2171740000  -0.3026820000
H  4.9577440000  -3.3528460000  -1.7765210000
C  1.3895220000  -2.6353090000  -0.2156760000
H  1.2450930000  -3.2863460000  0.6412700000
C  0.3221280000  -1.9716780000  -0.7407700000
H  0.4551990000  -1.3375470000  -1.6121870000
H  5.4003410000  -2.4375850000  -0.3024950000
N  -0.8968760000  3.2613430000  0.1094940000
H  -1.0348820000  4.1802300000  0.4960050000
C  -1.9424530000  2.6859850000  -0.5402400000
C  -3.2029110000  3.5063360000  -0.6273540000
H  -4.0066210000  2.9537560000  -0.1388340000
H  -3.1186550000  4.4919930000  -0.1703730000
H  -3.4721280000  3.6209160000  -1.6776030000
O  -1.8712600000  1.5677250000  -1.0271270000
C  -0.9977050000  -2.1004030000  -0.2222640000
H  -1.1313250000  -2.7637480000  0.6259150000
C  -2.0466820000  -1.4220890000  -0.7394680000
H  -1.8549140000  -0.7390170000  -1.5593850000
C  -3.4225650000  -1.4672830000  -0.2861370000
C  -4.3369840000  -0.5743850000  -0.8582960000
C  -3.8760170000  -2.3625350000  0.6926830000
C  -5.6633210000  -0.5715960000  -0.4613840000
H  -3.9830250000  0.1282030000  -1.6020840000
C  -5.2001470000  -2.3581150000  1.0863010000
H  -3.1951980000  -3.0769050000  1.1381430000
C  -6.0970740000  -1.4621530000  0.5113610000
H  -6.3625010000  0.1209360000  -0.9133450000
H  -5.5423620000  -3.0583530000  1.8379010000
H  -7.1352780000  -1.4653250000  0.8198450000