25
charge=0, multiplicity=1, basis=def2-QZVPP, AUX_BASIS_CORR=rimp2-def2-QZVPPD, SCF_ALGORITHM=GDM, xc_grid=000099000590, mem_total=30000, num_basis=1209, num_pairs=514203, num_threads=8
N  -1.8407420000  1.3286150000  0.0000700000
C  -3.0676050000  0.6999240000  0.0000260000
N  -3.0848840000  -0.7087100000  -0.0001380000
C  -2.0084210000  -1.5603240000  -0.0001080000
C  -0.6970510000  -0.8341710000  -0.0000550000
C  -0.7525900000  0.6274110000  0.0000250000
N  0.4604870000  1.2657800000  0.0000490000
N  0.3855160000  -1.5195150000  -0.0000840000
C  1.5848130000  -0.8559490000  -0.0000330000
C  1.6457710000  0.5504520000  0.0000380000
C  2.8968440000  1.1785980000  0.0000980000
C  2.7658880000  -1.6091650000  -0.0000520000
C  3.9893510000  -0.9836280000  0.0000020000
C  4.0447200000  0.4134870000  0.0000800000
H  5.0063770000  0.9117870000  0.0001280000
H  2.9722190000  2.2555590000  0.0001630000
H  2.6677810000  -2.6870330000  -0.0001100000
H  4.9026660000  -1.5637360000  -0.0000120000
O  -4.1159060000  1.2943230000  0.0001030000
O  -2.1145500000  -2.7596290000  -0.0001530000
H  -4.0037480000  -1.1328740000  -0.0001480000
C  0.4934470000  2.7273320000  0.0001030000
H  -0.5316970000  3.0806970000  0.0000270000
H  1.0082880000  3.0855530000  -0.8917110000
H  1.0081260000  3.0854980000  0.8920350000