8
charge=0, multiplicity=1, basis=def2-QZVPP, AUX_BASIS_CORR=rimp2-def2-QZVPPD, SCF_ALGORITHM=GDM, xc_grid=000099000590, mem_total=3750, num_basis=348, num_pairs=59618, num_threads=1
C  1.3883210000  -0.1228710000  0.0000040000
C  -0.0883730000  0.1257660000  0.0000000000
O  -0.6259360000  1.1989860000  0.0000010000
O  -0.7884950000  -1.0284540000  -0.0000020000
H  -1.7272670000  -0.7947000000  -0.0000080000
H  1.6629450000  -0.7065990000  -0.8797260000
H  1.6629340000  -0.7064860000  0.8798020000
H  1.9171520000  0.8261570000  -0.0000880000