42
charge=1, multiplicity=1, basis=def2-QZVPP, AUX_BASIS_CORR=rimp2-def2-QZVPPD, SCF_ALGORITHM=GDM, xc_grid=000099000590, mem_total=60000, num_basis=1773, num_pairs=1052007, num_threads=16
C  1.0130150000  3.2714920000  -0.7500530000
C  0.0038540000  2.1128740000  -0.8787490000
C  0.8402610000  1.7923760000  1.1421930000
C  1.5700020000  3.0731420000  0.6918680000
H  1.7891180000  3.2219630000  -1.5152080000
H  0.5056990000  4.2296590000  -0.8624550000
H  2.6518130000  2.9544470000  0.7215970000
H  1.3023970000  3.9035870000  1.3457410000
C  -0.5500730000  2.0054390000  0.5419940000
H  -1.2379230000  1.1812290000  0.6923480000
H  -1.0011750000  2.9372880000  0.8781940000
H  -0.7093230000  2.1747580000  -1.6962140000
H  0.9249580000  1.5246450000  2.1917090000
N  1.3812300000  0.7243880000  0.2771990000
N  0.7546940000  0.8329760000  -0.9603360000
C  -0.2443730000  -1.4988040000  -0.6264130000
C  -1.5849900000  -1.0884350000  -0.2680070000
C  -2.0810330000  -1.1885720000  1.0388030000
C  -2.4318590000  -0.5947390000  -1.2703100000
C  -3.3704850000  -0.7827300000  1.3342450000
H  -1.4667220000  -1.6020540000  1.8278520000
C  -3.7188330000  -0.1874620000  -0.9737360000
H  -2.0642670000  -0.5287410000  -2.2881710000
C  -4.1894650000  -0.2760640000  0.3320470000
H  -3.7452650000  -0.8724420000  2.3459660000
H  -4.3619530000  0.1916750000  -1.7578170000
H  -5.1998500000  0.0358240000  0.5654230000
H  -0.0674550000  -1.6246920000  -1.6889860000
C  1.9565960000  -0.4448170000  0.6165590000
H  2.1223320000  -0.4993330000  1.6909350000
C  0.7508310000  -1.9400250000  0.2477840000
H  0.4307890000  -2.1058160000  1.2724220000
H  1.4242410000  0.8141940000  -1.7255670000
C  3.1300400000  -0.9822310000  -0.1811700000
H  4.0344840000  -0.4688500000  0.1547350000
H  3.0019180000  -0.7684870000  -1.2461100000
C  1.7605560000  -2.9528910000  -0.2828440000
H  1.5489510000  -3.9414940000  0.1269150000
H  1.6525950000  -3.0319440000  -1.3675840000
C  3.1738630000  -2.4793660000  0.0498420000
H  3.4186630000  -2.6892500000  1.0953470000
H  3.9270700000  -2.9728260000  -0.5634280000