40
charge=1, multiplicity=1, basis=def2-QZVPP, mem_total=60000, AUX_BASIS_CORR=rimp2-def2-QZVPPD, SCF_ALGORITHM=GDM, xc_grid=000099000590, num_basis=1605, num_pairs=918455, num_threads=16
C  2.3502380000  -0.2491840000  0.1040300000
C  1.5028950000  -0.9298960000  -0.9619350000
C  0.2929900000  -1.5610490000  -0.8796870000
C  -0.5624500000  -1.8493540000  0.3065410000
C  -1.9939860000  -1.3987340000  0.0722150000
C  -2.4951730000  -0.3131850000  0.6563880000
C  -1.7921660000  0.6044030000  1.6103920000
C  -1.4110720000  1.9643990000  0.9932920000
C  -0.6450010000  1.9373860000  -0.3082100000
C  0.6390830000  1.5256490000  -0.4369190000
C  1.5478050000  0.9874480000  0.6347780000
H  0.9804740000  0.7134560000  1.5226700000
C  3.6345600000  0.2384420000  -0.5803300000
H  4.2870390000  0.7198510000  0.1487060000
H  3.4247820000  0.9632540000  -1.3709510000
H  4.1857350000  -0.5939200000  -1.0230570000
C  2.7220470000  -1.1954650000  1.2507660000
H  3.3293180000  -0.6555260000  1.9795250000
H  3.3126230000  -2.0388310000  0.8891410000
H  1.8512570000  -1.5899980000  1.7734310000
C  -2.8102430000  -2.2695300000  -0.8389310000
H  -3.8085390000  -1.8601630000  -0.9873420000
H  -2.9152040000  -3.2736760000  -0.4179230000
H  -2.3512060000  -2.3868940000  -1.8253110000
H  -0.1402910000  -1.4288140000  1.2122800000
H  -0.5468290000  -2.9403990000  0.4256920000
H  -3.5295910000  -0.0601450000  0.4373570000
H  -2.4540410000  0.8123660000  2.4544420000
H  -0.9118500000  0.1285150000  2.0378290000
H  2.2698550000  1.7460190000  0.9451180000
H  1.1223430000  1.7779720000  -1.3807530000
C  -1.3770030000  2.4788740000  -1.4923150000
H  -2.3140030000  1.9325990000  -1.6334390000
H  -0.7918000000  2.4315110000  -2.4100600000
H  -1.6522060000  3.5216370000  -1.3083740000
H  -2.3269030000  2.5342540000  0.8277740000
H  -0.8264490000  2.5249100000  1.7281270000
H  1.9136980000  -0.8916060000  -1.9687160000
H  0.3817870000  0.0059380000  -1.0081760000
H  -0.1051370000  -1.9135460000  -1.8284460000