13
charge=0, multiplicity=2, basis=def2-QZVPP, AUX_BASIS_CORR=rimp2-def2-QZVPPD, SCF_ALGORITHM=GDM, xc_grid=000099000590, mem_total=3750, num_basis=511, num_pairs=118865, num_threads=1
Si  -0.0000190000  0.0000460000  -0.4268450000
C  0.8771750000  -1.5537130000  0.1769870000
H  1.9110530000  -1.5899240000  -0.1721240000
H  0.8929470000  -1.5815880000  1.2723430000
H  0.3740490000  -2.4576550000  -0.1720750000
C  -1.7841230000  0.0171830000  0.1772630000
H  -1.8160100000  0.0173070000  1.2726270000
H  -2.3154290000  0.9049320000  -0.1716040000
H  -2.3324930000  -0.8600110000  -0.1719000000
C  0.9069720000  1.5364710000  0.1773000000
H  0.4213460000  2.4500110000  -0.1715610000
H  0.9233090000  1.5638020000  1.2726630000
H  1.9413470000  1.5528270000  -0.1718390000