18
charge=0, multiplicity=1, basis=def2-QZVPP, AUX_BASIS_CORR=rimp2-def2-QZVPPD, SCF_ALGORITHM=GDM, xc_grid=000099000590, mem_total=15000, num_basis=864, num_pairs=297118, num_threads=4
C  0.1371430000  -0.0000020000  0.0000440000
C  -0.5505440000  -1.2697590000  0.0000810000
C  -0.5505430000  1.2697560000  0.0000810000
C  -1.8734750000  -1.5477030000  0.0000270000
C  -1.8734740000  1.5477020000  0.0000270000
C  -3.0067760000  -0.6753510000  -0.0000790000
C  -3.0067750000  0.6753500000  -0.0000790000
C  1.5207150000  -0.0000010000  0.0000080000
C  2.2686260000  -1.2088220000  -0.0000150000
N  2.8550640000  -2.1988130000  -0.0000500000
C  2.2686230000  1.2088230000  -0.0000190000
N  2.8550520000  2.1988190000  -0.0000300000
H  -3.9724100000  1.1684880000  -0.0001550000
H  -2.1184020000  2.6047080000  0.0000600000
H  0.1048520000  2.1330920000  0.0001510000
H  -3.9724110000  -1.1684880000  -0.0001550000
H  0.1048500000  -2.1330950000  0.0001510000
H  -2.1184040000  -2.6047090000  0.0000610000