16
charge=-1, multiplicity=1, basis=def2-QZVPP, mem_total=7500, AUX_BASIS_CORR=rimp2-def2-QZVPPD, SCF_ALGORITHM=GDM, xc_grid=000099000590, num_basis=750, num_pairs=232759, num_threads=2
C  -0.3826120000  1.3073230000  -0.0099610000
N  0.9872980000  1.0747140000  -0.0468620000
C  1.5678190000  -0.1606870000  -0.0183710000
N  0.8532830000  -1.2353690000  -0.0076200000
C  -0.4967700000  -1.1072150000  -0.0348200000
C  -1.2091310000  0.1047710000  0.0095620000
N  -2.5397390000  0.1246830000  0.0499710000
O  -0.7986490000  2.4731840000  -0.0002520000
N  2.9890810000  -0.1743580000  -0.0187210000
H  3.2898590000  -1.1002160000  -0.2970640000
H  3.3657160000  0.0057810000  0.9088450000
H  1.5675510000  1.8963570000  -0.1337020000
N  -1.2582660000  -2.2845110000  -0.0984970000
H  -2.2197170000  -2.0544320000  0.1418260000
H  -0.8731180000  -3.0295370000  0.4661400000
H  -2.8385380000  1.0953100000  0.0896120000