13
charge=0, multiplicity=2, basis=def2-QZVPP, AUX_BASIS_CORR=rimp2-def2-QZVPPD, SCF_ALGORITHM=GDM, xc_grid=000099000590, mem_total=3750, num_basis=552, num_pairs=138381, num_threads=1
O  -2.0906360000  -0.7827790000  -0.2299620000
O  -0.9529810000  -0.7409550000  0.4031470000
C  -0.0066230000  0.1923100000  -0.2280220000
C  1.3137540000  -0.0820630000  0.4119950000
C  -0.5031380000  1.6087200000  -0.0186540000
H  0.0075050000  -0.0704800000  -1.2870380000
H  -1.5046370000  1.7202980000  -0.4339120000
H  0.1665840000  2.3091090000  -0.5197590000
H  -0.5295810000  1.8534300000  1.0450980000
C  2.3880840000  -0.4609100000  -0.2612350000
H  1.3602800000  0.0715490000  1.4866890000
H  2.3576950000  -0.6223300000  -1.3335780000
H  3.3386300000  -0.6200460000  0.2325070000