4
charge=0, multiplicity=1, basis=def2-QZVPP, AUX_BASIS_CORR=rimp2-def2-QZVPPD, SCF_ALGORITHM=GDM, xc_grid=000099000590, mem_total=3750, num_basis=201, num_pairs=20503, num_threads=1
H  1.7134450000  0.4250330000  0.0000030000
O  1.0250940000  -0.2549390000  0.0000000000
N  -0.1658650000  0.4815200000  0.0000000000
O  -1.0941420000  -0.2195210000  0.0000000000