26
charge=-1, multiplicity=1, basis=def2-QZVPP, mem_total=30000, AUX_BASIS_CORR=rimp2-def2-QZVPPD, SCF_ALGORITHM=GDM, xc_grid=000099000590, num_basis=1158, num_pairs=488697, num_threads=8
C  1.0753720000  0.5930110000  1.0705610000
C  2.4000340000  0.8619510000  0.3445850000
C  3.2629600000  -0.3893760000  0.0953610000
C  2.3362970000  -1.3324040000  -0.7644490000
C  0.9022740000  -1.4267010000  -0.3417810000
C  0.3056380000  -0.5589700000  0.4725020000
H  0.3063150000  -2.2512800000  -0.7376220000
C  -1.1698230000  -0.6505510000  0.7902630000
C  -2.0253000000  -0.0561330000  -0.3338040000
H  -1.3932120000  -0.1230820000  1.7246420000
H  -1.4818570000  -1.6854770000  0.9346550000
C  -3.5269890000  -0.1900410000  -0.0570810000
O  -4.0311910000  -1.1515710000  0.4554820000
O  -4.2396880000  0.8589340000  -0.4774310000
N  -1.7294630000  1.3388340000  -0.6837870000
H  -1.8486090000  -0.6532470000  -1.2336190000
O  4.4592930000  -0.2365430000  -0.4132080000
O  2.6732360000  1.9967210000  0.0234400000
H  -3.5655390000  1.4858310000  -0.8301210000
H  -1.4556420000  1.8641080000  0.1403640000
H  -0.9447260000  1.3906190000  -1.3226800000
H  2.4085450000  -0.9636280000  -1.7955850000
H  2.8092570000  -2.3185300000  -0.7676680000
H  0.4968360000  1.5222420000  1.0553120000
H  1.2878470000  0.3796850000  2.1257860000
H  3.2310450000  -0.8641180000  1.1298290000