12
charge=0, multiplicity=1, basis=def2-QZVPP, AUX_BASIS_CORR=rimp2-def2-QZVPPD, SCF_ALGORITHM=GDM, xc_grid=000099000590, mem_total=3750, num_basis=576, num_pairs=136535, num_threads=1
C  -0.5154180000  0.4166920000  -0.0000340000
C  0.5154180000  -0.4166930000  0.0000190000
C  1.9020650000  0.1072100000  -0.0000250000
C  -1.9020650000  -0.1072100000  0.0000150000
O  2.8006390000  -0.8924200000  0.0000680000
H  3.6826060000  -0.4941380000  0.0000350000
O  2.2111670000  1.2680970000  -0.0001300000
O  -2.2111680000  -1.2680970000  0.0000350000
O  -2.8006390000  0.8924200000  0.0000350000
H  -3.6826060000  0.4941380000  0.0000690000
H  -0.3706330000  1.4898950000  -0.0001090000
H  0.3706330000  -1.4898950000  0.0000940000