21
charge=0, multiplicity=2, basis=def2-QZVPP, AUX_BASIS_CORR=rimp2-def2-QZVPPD, SCF_ALGORITHM=GDM, xc_grid=000099000590, mem_total=15000, num_basis=873, num_pairs=326716, num_threads=4
N  0.1870270000  -0.2380570000  -0.0184320000
C  -0.5813530000  -1.4695050000  0.1745380000
C  -2.0292140000  -0.9863400000  0.1970210000
H  -0.2722830000  -1.9713860000  1.0912760000
H  -0.3899180000  -2.1592150000  -0.6531710000
C  -1.9992910000  0.2568650000  -0.6912420000
H  -2.3220210000  -0.7127900000  1.2133940000
H  -2.7253830000  -1.7459020000  -0.1581600000
C  -0.6551640000  0.9254340000  -0.3166270000
H  -2.8465750000  0.9250750000  -0.5407270000
H  -1.9723950000  -0.0320050000  -1.7453430000
C  -0.7686610000  1.8680950000  0.8313230000
C  1.5449080000  -0.2765060000  -0.0186340000
O  2.1460940000  -1.3183330000  0.1870190000
C  2.2671550000  1.0206690000  -0.3023290000
H  1.8942500000  1.8387410000  0.3155450000
H  2.1356840000  1.3057550000  -1.3493690000
H  3.3259650000  0.8656750000  -0.1117450000
H  -1.1499890000  2.8694580000  0.6745680000
H  -0.5609320000  1.5356830000  1.8397270000
H  -0.2646250000  1.4616980000  -1.1874130000