23
charge=0, multiplicity=2, basis=def2-QZVPP, AUX_BASIS_CORR=rimp2-def2-QZVPPD, SCF_ALGORITHM=GDM, xc_grid=000099000590, mem_total=15000, num_basis=1027, num_pairs=345183, num_threads=4
C  -3.4511180000  -0.8270920000  -0.0007330000
C  -3.5119420000  0.7017610000  0.0493120000
C  -1.9648800000  -1.1690930000  -0.0397770000
N  -1.2828190000  0.0261950000  -0.0300430000
C  -2.0574830000  1.1639890000  0.0358620000
O  -1.6654090000  2.2994650000  0.0759040000
O  -1.4830150000  -2.2711880000  -0.0719860000
Cl  0.6982600000  0.0790890000  -0.0768790000
H  -3.9232770000  -1.2547110000  -0.8855720000
H  -3.8910140000  -1.3116160000  0.8712570000
H  -3.9860430000  1.0916410000  0.9503250000
H  -4.0194100000  1.1473580000  -0.8065890000
C  2.8983000000  -0.0214400000  -0.0187120000
C  3.1030840000  -0.6422400000  1.3295330000
C  3.2838490000  1.4045920000  -0.2285600000
O  3.2061970000  -0.7825270000  -1.0811350000
H  2.6788430000  -0.0167180000  2.1119430000
H  4.1800700000  -0.7471340000  1.5051800000
H  2.6393500000  -1.6282130000  1.3879800000
H  2.8501550000  2.0406090000  0.5401830000
H  2.9548750000  1.7464600000  -1.2083080000
H  4.3761700000  1.4830980000  -0.1805450000
H  2.9885520000  -1.7075100000  -0.9124310000