18
charge=1, multiplicity=2, basis=def2-QZVPP, AUX_BASIS_CORR=rimp2-def2-QZVPPD, SCF_ALGORITHM=GDM, xc_grid=000099000590, mem_total=7500, num_basis=783, num_pairs=240891, num_threads=2
N  3.4691840000  -0.0960330000  -0.0806100000
H  3.7902190000  0.8303020000  -0.3536840000
C  2.1876040000  -0.1442340000  0.0372810000
C  1.3743980000  1.0060040000  -0.1862860000
O  1.6489820000  -1.2985240000  0.4722600000
N  -0.0018370000  1.1407330000  0.0680260000
H  1.8494120000  1.9353950000  -0.4639890000
C  -0.9686490000  0.2348860000  -0.0865960000
C  -2.3883360000  0.6574420000  0.3228420000
O  -0.8337300000  -0.9077240000  -0.5185700000
N  -3.2506920000  -0.5048940000  -0.0528280000
H  -2.7234520000  1.5531930000  -0.1980400000
H  -2.4532420000  0.8224870000  1.3975940000
H  -2.5511840000  -1.2245340000  -0.3806190000
H  -3.8955610000  -0.2971790000  -0.8174110000
H  -3.7896260000  -0.8782770000  0.7301780000
H  -0.2915420000  2.0716240000  0.3438580000
H  0.7962740000  -1.4662530000  0.0470340000