5
charge=0, multiplicity=1, basis=def2-QZVPP, mem_total=3750, AUX_BASIS_CORR=rimp2-def2-QZVPPD, SCF_ALGORITHM=GDM, xc_grid=000099000590, num_basis=217, num_pairs=23939, num_threads=1
Cl  0.6594020000  0.0000000000  0.0000000000
C  -1.1306740000  0.0000000000  0.0000000000
H  -1.4752630000  -0.5804480000  0.8508410000
H  -1.4752640000  -0.4466270000  -0.9281020000
H  -1.4752620000  1.0270750000  0.0772620000