27
charge=1, multiplicity=1, basis=def2-QZVPP, mem_total=30000, AUX_BASIS_CORR=rimp2-def2-QZVPPD, SCF_ALGORITHM=GDM, xc_grid=000099000590, num_basis=1161, num_pairs=510466, num_threads=8
H  -2.0007000000  -2.7800730000  0.1204820000
C  -0.8748990000  0.2030320000  1.0380950000
C  -1.7304490000  0.9773490000  0.3048420000
H  -3.4527530000  -1.5525750000  -1.1950920000
H  0.2274640000  -1.4251800000  0.1333250000
H  -0.2090510000  0.6562560000  1.7613800000
C  -1.7668610000  2.4666560000  0.4477690000
C  -0.8158090000  -1.2306160000  0.8680470000
C  -2.6503350000  0.3404500000  -0.5788620000
N  -1.8991920000  -1.7766810000  0.1491850000
C  -2.7215630000  -1.0184070000  -0.6027390000
H  -0.5358830000  -1.8227870000  1.7408480000
C  3.1566450000  -0.1913880000  0.5332070000
H  1.5905160000  2.1489580000  -1.2214050000
H  0.2554780000  0.1580160000  -1.8699340000
H  4.0430410000  -0.2631290000  1.1463160000
H  3.3860150000  1.8513460000  0.2884120000
C  2.4232740000  -1.2653160000  0.1677960000
C  1.7770810000  1.1717850000  -0.7987320000
N  1.3053720000  -1.1802910000  -0.6419070000
C  1.0563100000  0.0726050000  -1.1481100000
H  2.7026590000  -2.2554610000  0.5018690000
N  2.8197080000  1.0486930000  0.0566970000
H  -3.3385170000  0.9215650000  -1.1759270000
H  -1.6367580000  2.9491860000  -0.5241220000
H  -0.9949470000  2.8278950000  1.1262660000
H  -2.7381460000  2.7870390000  0.8318700000