16
charge=0, multiplicity=1, basis=def2-QZVPP, AUX_BASIS_CORR=rimp2-def2-QZVPPD, SCF_ALGORITHM=GDM, xc_grid=000099000590, mem_total=7500, num_basis=642, num_pairs=189961, num_threads=2
C  0.1098880000  1.0984590000  -0.1343400000
C  -0.1098880000  0.6778110000  1.2032090000
C  0.1098880000  -0.6778110000  1.2032090000
C  -0.1098880000  -1.0984590000  -0.1343400000
H  0.4822920000  -1.3076240000  2.0070450000
H  -0.4822920000  1.3076240000  2.0070450000
C  1.4588030000  1.1004910000  -0.8168850000
H  2.1402820000  0.3779460000  -0.3699920000
H  1.3770940000  0.8886270000  -1.8861240000
H  1.9088910000  2.0972820000  -0.7273880000
C  -1.4588030000  -1.1004910000  -0.8168850000
H  -2.1402820000  -0.3779460000  -0.3699920000
H  -1.3770940000  -0.8886270000  -1.8861240000
H  -1.9088910000  -2.0972820000  -0.7273880000
H  0.5357020000  -1.8888410000  -0.5354450000
H  -0.5357020000  1.8888410000  -0.5354450000