18
charge=0, multiplicity=2, basis=def2-QZVPP, AUX_BASIS_CORR=rimp2-def2-QZVPPD, SCF_ALGORITHM=GDM, xc_grid=000099000590, mem_total=7500, num_basis=783, num_pairs=264897, num_threads=2
C  -0.8899100000  1.2888410000  -0.2770780000
C  -1.5809570000  0.1615470000  0.3899740000
O  -0.5315650000  -0.6926810000  0.8722420000
C  0.7346130000  -0.0413900000  0.8196630000
C  0.5144420000  1.2040440000  -0.0346780000
H  -1.3737980000  2.0794320000  -0.8328810000
C  -2.5182510000  -0.6413320000  -0.4972420000
H  -2.1481290000  0.5372550000  1.2570730000
H  -1.9946570000  -0.9910080000  -1.3884280000
H  -3.3682410000  -0.0302250000  -0.8068430000
H  -2.8930930000  -1.5038520000  0.0547500000
C  1.7610880000  -0.9963830000  0.2375880000
H  1.0480240000  0.2697270000  1.8247970000
O  1.3235950000  -1.5297970000  -0.9927130000
H  1.9697350000  -1.7925990000  0.9608940000
H  2.6831030000  -0.4461670000  0.0461300000
H  0.4827200000  -1.9676080000  -0.8246900000
O  1.3914930000  1.9716130000  -0.3945510000