19
charge=0, multiplicity=2, basis=def2-QZVPP, AUX_BASIS_CORR=rimp2-def2-QZVPPD, SCF_ALGORITHM=GDM, xc_grid=000099000590, mem_total=7500, num_basis=759, num_pairs=229150, num_threads=2
C  1.6679010000  0.1459610000  0.0026240000
C  0.3612180000  -0.6050690000  -0.0020140000
C  -0.8856030000  0.2654290000  -0.0498020000
H  0.3352390000  -1.2488950000  0.8852210000
H  0.3707660000  -1.2944970000  -0.8553430000
C  -2.1481090000  -0.5204650000  -0.0720990000
H  -0.8234200000  0.9245160000  -0.9287600000
H  -0.8819160000  0.9561260000  0.8009360000
C  -3.4621000000  0.1536130000  0.0938460000
H  -2.1234860000  -1.5477710000  -0.4215410000
N  1.6691830000  1.4128750000  -0.0384710000
C  2.9038630000  -0.7158050000  0.0594150000
H  2.8971140000  -1.3324650000  0.9619540000
H  3.8122720000  -0.1122960000  0.0551460000
H  2.9326140000  -1.3985800000  -0.7937550000
H  -3.7158160000  0.7718980000  -0.7810370000
H  -3.4564990000  0.8325980000  0.9537100000
H  -4.2755690000  -0.5609180000  0.2301020000
H  2.6214020000  1.7781740000  -0.0291520000