46
charge=0, multiplicity=1, basis=def2-QZVPP, mem_total=120000, AUX_BASIS_CORR=rimp2-def2-QZVPPD, SCF_ALGORITHM=GDM, xc_grid=000099000590, num_basis=2001, num_pairs=1113615, num_threads=32
C  -0.2221630000  -2.6099100000  0.1388000000
H  -0.6904250000  -3.4069710000  -0.4648670000
C  0.9150780000  -1.9976680000  -0.6484140000
C  -0.2344630000  0.2205440000  -0.7102990000
H  -0.3282440000  1.0221280000  0.0239890000
H  -0.2179290000  0.6967330000  -1.6926990000
C  -1.4585020000  -0.6979130000  -0.5783310000
H  -1.5725480000  -1.2806480000  -1.5113460000
N  -1.1938980000  -1.6055340000  0.5344460000
C  2.2258540000  0.0675560000  -0.2035810000
C  1.6684420000  -2.7249650000  -1.4672820000
C  3.4722060000  -0.6468650000  0.0827430000
C  4.6933670000  -0.1171890000  0.0947190000
C  1.0601240000  -0.5349770000  -0.5032430000
C  5.9392530000  -0.8847900000  0.3975090000
H  6.6486220000  -0.8284670000  -0.4336450000
H  6.4488660000  -0.4755380000  1.2751590000
H  5.7225310000  -1.9368830000  0.5908070000
C  -2.3759680000  -2.2001400000  1.1234930000
H  -2.9536430000  -2.7770450000  0.3779360000
H  -2.0537320000  -2.9030190000  1.8955440000
C  -2.7238170000  0.1141170000  -0.4012170000
C  -3.5642530000  -0.0627460000  0.6961950000
C  -3.2452900000  -1.1135110000  1.7256150000
H  -2.7124550000  -0.6621190000  2.5681310000
H  -4.1707900000  -1.5428490000  2.1172070000
H  0.1753380000  -3.0765680000  1.0459070000
C  -4.7081310000  0.7251130000  0.8134240000
H  -5.3611320000  0.5791230000  1.6674690000
C  -3.0575390000  1.0626050000  -1.3679340000
H  -2.4160710000  1.1932360000  -2.2318870000
C  -5.0241680000  1.6760710000  -0.1406460000
H  -5.9178800000  2.2788460000  -0.0332150000
C  -4.1941800000  1.8416680000  -1.2428710000
H  -4.4345330000  2.5742310000  -2.0037720000
C  2.2360910000  1.5618050000  -0.1409980000
O  1.8242890000  2.2928760000  -1.0055230000
O  2.7440950000  2.0210210000  1.0116300000
C  2.7820690000  3.4431330000  1.1502730000
H  3.2238670000  3.6301060000  2.1254090000
H  1.7757630000  3.8585840000  1.0985830000
H  3.3886200000  3.8878210000  0.3610250000
H  2.4757670000  -2.2814160000  -2.0351450000
H  1.4867770000  -3.7857800000  -1.6021260000
H  4.8236530000  0.9399360000  -0.1193200000
H  3.3657370000  -1.7075050000  0.2831300000