21
charge=0, multiplicity=2, basis=def2-QZVPP, AUX_BASIS_CORR=rimp2-def2-QZVPPD, SCF_ALGORITHM=GDM, xc_grid=000099000590, mem_total=15000, num_basis=900, num_pairs=329237, num_threads=4
C  1.1113760000  1.5349550000  -0.1291130000
C  2.4302120000  1.1126390000  0.0426070000
C  2.7160460000  -0.2436140000  0.1531040000
C  1.7009220000  -1.1920100000  0.0929040000
C  0.3766590000  -0.7901420000  -0.0806940000
C  0.1475350000  0.5611860000  -0.1842970000
H  0.8682300000  2.5885940000  -0.2081080000
H  3.2300770000  1.8424090000  0.0960230000
H  3.7409870000  -0.5657720000  0.2926970000
H  1.9384930000  -2.2471600000  0.1845110000
C  -0.8070440000  -1.7132380000  -0.1825570000
C  -2.0646860000  -0.9647800000  0.2671060000
H  -0.6591160000  -2.6191020000  0.4094450000
H  -0.9235690000  -2.0348590000  -1.2240060000
C  -2.1700000000  0.4028630000  -0.3560800000
H  -2.0646780000  -0.8589220000  1.3553980000
H  -2.9528630000  -1.5460680000  -0.0003630000
C  -2.6736060000  1.4794340000  0.2809410000
H  -2.0682950000  0.4433350000  -1.4378860000
H  -2.8657860000  1.4610040000  1.3479740000
H  -2.8479600000  2.4127880000  -0.2392200000