23
charge=0, multiplicity=2, basis=def2-QZVPP, AUX_BASIS_CORR=rimp2-def2-QZVPPD, SCF_ALGORITHM=GDM, xc_grid=000099000590, mem_total=15000, num_basis=960, num_pairs=361220, num_threads=4
C  2.9734990000  0.1973470000  -0.1286480000
C  2.4594170000  -1.0863040000  0.4277400000
C  2.0739010000  1.3853200000  -0.1407690000
C  1.0319870000  -1.3908780000  -0.0449180000
C  0.1369720000  -0.1823390000  0.1516270000
C  0.6548420000  1.0305830000  -0.6041810000
O  -1.1729560000  -0.5497100000  -0.3340910000
C  -2.2305070000  0.1019690000  0.1744380000
C  -3.5093050000  -0.3829290000  -0.4438370000
O  -2.1463370000  0.9594910000  1.0140920000
H  2.4555960000  -1.0333300000  1.5302750000
H  3.1231900000  -1.9154010000  0.1730470000
H  2.4850720000  2.1798220000  -0.7672630000
H  2.0084870000  1.8093370000  0.8759180000
H  0.6208810000  -2.2450500000  0.4976600000
H  1.0387490000  -1.6500050000  -1.1077000000
H  0.0430850000  0.0581710000  1.2136540000
H  -0.0178330000  1.8757100000  -0.4499090000
H  0.6610370000  0.7929560000  -1.6724060000
H  -3.5966120000  -1.4630660000  -0.3216960000
H  -3.4992590000  -0.1732790000  -1.5146500000
H  -4.3523840000  0.1188690000  0.0237850000
H  4.0394930000  0.3304040000  -0.2694510000