29
charge=0, multiplicity=2, basis=def2-QZVPP, AUX_BASIS_CORR=rimp2-def2-QZVPPD, SCF_ALGORITHM=GDM, xc_grid=000099000590, mem_total=30000, num_basis=1221, num_pairs=515814, num_threads=8
C  -0.0911830000  0.1073930000  -0.0129500000
C  -0.8409840000  -1.1723530000  -0.3741640000
C  -2.2596420000  -0.8761160000  -0.8545370000
H  -0.8520920000  -1.8186590000  0.5100190000
H  -0.2875510000  -1.7149970000  -1.1420380000
C  -2.9660020000  0.1231520000  0.0380770000
H  -2.8290440000  -1.8130330000  -0.9188240000
H  -2.2067990000  -0.4700160000  -1.8688450000
C  -3.3318480000  -0.3902350000  1.4106590000
C  -4.0499560000  0.9266770000  -0.6346970000
H  -1.9193400000  0.9200080000  0.2273430000
N  -0.6802000000  1.1801400000  0.2999660000
C  1.4039050000  0.0707470000  -0.0068170000
C  2.1031560000  -1.1328460000  0.0458660000
C  2.1215510000  1.2671330000  -0.0350550000
H  -4.4339130000  1.7081450000  0.0247140000
H  -4.8981270000  0.2846470000  -0.9092130000
H  -3.6872680000  1.4007600000  -1.5494690000
H  -4.1392550000  -1.1313510000  1.3438950000
H  -3.6821470000  0.4195740000  2.0541090000
H  -2.4863650000  -0.8671810000  1.9108150000
C  3.5053270000  1.2572340000  -0.0150630000
C  3.4915390000  -1.1419250000  0.0758260000
C  4.1957380000  0.0517520000  0.0419040000
H  1.5726270000  2.1990100000  -0.0721580000
H  1.5699200000  -2.0742910000  0.0760640000
H  4.0218370000  -2.0853370000  0.1246020000
H  5.2789540000  0.0449550000  0.0590380000
H  4.0503530000  2.1931150000  -0.0441150000