14
charge=0, multiplicity=1, basis=def2-QZVPP, AUX_BASIS_CORR=rimp2-def2-QZVPPD, SCF_ALGORITHM=GDM, xc_grid=000099000590, mem_total=3750, num_basis=636, num_pairs=173519, num_threads=1
N  -0.0260960000  -0.3586780000  -0.0004340000
C  -1.1582210000  0.4646880000  -0.0000480000
C  1.3667640000  -0.0918930000  0.0000350000
O  2.1354540000  -1.0098950000  0.0005050000
O  -1.0352510000  1.6625010000  -0.0000120000
C  1.7562710000  1.3558520000  -0.0002220000
C  -2.4704690000  -0.2624980000  0.0002310000
F  -0.3074250000  -1.7014460000  -0.0001100000
H  1.3557750000  1.8682730000  -0.8741970000
H  2.8432770000  1.3897210000  -0.0001580000
H  1.3556800000  1.8685730000  0.8735360000
H  -2.5563580000  -0.9024500000  0.8792360000
H  -2.5567080000  -0.9025340000  -0.8786750000
H  -3.2598520000  0.4844310000  0.0003590000