55
charge=0, multiplicity=1, basis=def2-QZVPP, mem_total=120000, AUX_BASIS_CORR=rimp2-def2-QZVPPD, SCF_ALGORITHM=GDM, xc_grid=000099000590, num_basis=2325, num_pairs=1520447, num_threads=32
C  -3.3596880000  -1.5798350000  -0.5094090000
C  -4.7440730000  -1.5538260000  0.1333220000
C  -5.2268080000  -0.1383620000  0.4123970000
C  -4.2080770000  0.6449100000  1.2286150000
C  -2.8036200000  0.6425380000  0.6159280000
C  -2.3284580000  -0.8196190000  0.3481730000
H  -5.4584460000  -2.0633230000  -0.5166990000
H  -4.7115770000  -2.0999020000  1.0805970000
H  -3.0236420000  -2.6172360000  -0.5854800000
H  -4.5538100000  1.6759320000  1.3621100000
H  -4.1656710000  0.2055150000  2.2321800000
H  -2.8366650000  1.1434980000  -0.3557570000
H  -2.2741960000  -1.3346620000  1.3130450000
H  -6.1784260000  -0.1779480000  0.9537220000
O  -5.4530120000  0.4789980000  -0.8658310000
H  -5.7138150000  1.3955650000  -0.7406130000
O  -3.3956210000  -1.0927780000  -1.8424470000
H  -4.0552510000  -0.3881540000  -1.8866100000
C  -0.9918170000  -0.7898640000  -0.3227740000
C  -1.8474650000  1.3779610000  1.5106450000
H  -2.0065070000  1.2492620000  2.5795880000
C  0.2118600000  -0.8394530000  0.2443080000
C  0.4528240000  -1.1270700000  1.7003530000
H  0.9156220000  -0.2759390000  2.2078170000
H  1.1230810000  -1.9809090000  1.8312140000
H  -0.4690360000  -1.3517090000  2.2317560000
C  1.4079010000  -0.4248810000  -0.5831250000
C  1.7249050000  1.0836100000  -0.2689590000
C  2.6653010000  -1.3172910000  -0.4299050000
C  3.7213190000  -0.5833960000  0.3949870000
H  2.3916330000  -2.2122710000  0.1338400000
H  3.2867920000  -0.3006160000  1.3606610000
C  -0.8009680000  2.0996470000  1.1192810000
H  -0.1575050000  2.5222080000  1.8881760000
C  3.1876900000  -1.7620140000  -1.7957960000
H  2.3913290000  -2.2607400000  -2.3512350000
H  3.5290850000  -0.9108310000  -2.3889040000
H  4.0184680000  -2.4630230000  -1.7059840000
C  5.0042380000  -1.3474950000  0.6559550000
H  4.7344570000  -2.3290260000  1.0584950000
H  5.5125490000  -1.5189420000  -0.2949930000
C  5.9355440000  -0.6192330000  1.6176130000
H  5.4596210000  -0.4705310000  2.5908370000
H  6.8532750000  -1.1872960000  1.7794240000
H  6.2077990000  0.3599770000  1.2220010000
O  4.1003610000  0.6280820000  -0.2923870000
C  3.1250800000  1.4506560000  -0.7209060000
O  3.4002630000  2.3992920000  -1.3998010000
C  0.7006430000  1.9927020000  -0.8746330000
C  -0.4227020000  2.3842440000  -0.2819330000
H  1.1028000000  -0.4550990000  -1.6306010000
H  1.7245090000  1.1994050000  0.8197100000
H  0.8899790000  2.2892430000  -1.9001770000
H  -1.1256340000  2.9731050000  -0.8659020000
H  -1.0485120000  -0.5678890000  -1.3833030000