35
charge=1, multiplicity=1, basis=def2-QZVPP, mem_total=60000, AUX_BASIS_CORR=rimp2-def2-QZVPPD, SCF_ALGORITHM=GDM, xc_grid=000099000590, num_basis=1482, num_pairs=777872, num_threads=16
C  2.0283350000  -0.9255950000  -0.2896570000
N  0.6092020000  -1.1939640000  -0.0174720000
N  -0.0861770000  -0.2594940000  -0.4202570000
C  -1.4970530000  -0.2249500000  -0.1741570000
C  -2.3011830000  0.6455010000  -0.9021720000
C  -2.0286830000  -1.0735410000  0.7931160000
C  -3.6647760000  0.6544580000  -0.6593690000
H  -1.8917190000  1.3031230000  -1.6551220000
C  -3.3906250000  -1.0490740000  1.0242600000
H  -1.3791850000  -1.7340380000  1.3500810000
C  -4.2086930000  -0.1885870000  0.2995630000
H  -4.3024900000  1.3220240000  -1.2236150000
H  -3.8167220000  -1.7007020000  1.7757870000
H  -5.2749260000  -0.1738070000  0.4867190000
C  2.6121280000  -0.4221680000  1.0525840000
H  2.6173040000  -1.2600330000  1.7526750000
H  3.6587980000  -0.1807820000  0.8456660000
C  2.7041630000  -2.2167650000  -0.7235990000
H  2.2480300000  -2.6150510000  -1.6308910000
H  3.7571010000  -2.0188660000  -0.9299410000
H  2.6427040000  -2.9724650000  0.0591850000
C  1.9800630000  0.1501560000  -1.3865560000
C  0.6695970000  0.8656290000  -1.1093240000
C  0.7478700000  2.0891290000  -0.1894130000
H  0.8961360000  2.9595220000  -0.8323530000
H  -0.2236780000  2.2319370000  0.2898310000
C  1.8541340000  2.0515430000  0.8695320000
C  1.9231080000  0.7757470000  1.7119050000
H  0.9202980000  0.4996660000  2.0559790000
H  2.4861110000  0.9930430000  2.6215620000
H  2.8269980000  2.2293140000  0.4021120000
H  1.6898270000  2.9043710000  1.5306120000
H  2.8340810000  0.8214310000  -1.3494730000
H  1.9607640000  -0.3236980000  -2.3687120000
H  0.1190880000  1.1003180000  -2.0162610000