52
charge=-1, multiplicity=1, basis=def2-QZVPP, mem_total=120000, AUX_BASIS_CORR=rimp2-def2-QZVPPD, SCF_ALGORITHM=GDM, xc_grid=000099000590, num_basis=2208, num_pairs=1242910, num_threads=32
C  4.9570570000  -1.8080000000  -0.0599090000
C  3.8078360000  -2.5825130000  -0.7306490000
H  4.1458610000  -3.6103920000  -0.9085320000
H  3.5904520000  -2.1525770000  -1.7117890000
H  5.8176600000  -1.7898820000  -0.7396690000
H  5.2785090000  -2.3568850000  0.8322470000
C  2.5591110000  -2.5900980000  0.0974180000
C  1.4387560000  -1.9573570000  -0.2309430000
C  3.6574330000  1.8481260000  -0.3325440000
C  2.3693890000  2.1902000000  -0.3693850000
C  1.8266650000  3.4277080000  0.1720420000
C  0.5213470000  3.6911040000  0.2323200000
C  -0.0727130000  4.9352460000  0.8113120000
H  0.6997730000  5.6198240000  1.1701430000
H  -0.7352910000  4.6983920000  1.6499910000
H  -0.6814130000  5.4656980000  0.0714210000
C  0.2580870000  -1.9205540000  0.6970730000
C  -0.7585040000  -0.9318310000  0.4275230000
O  0.2162560000  -2.7012970000  1.6452510000
C  -0.7703280000  0.0216060000  -0.6639950000
C  -1.9408880000  -0.7332400000  1.2098250000
O  -2.3825690000  -1.2990690000  2.2008840000
O  -0.0141140000  0.1745360000  -1.6280220000
C  -2.7402700000  0.4209000000  0.5643540000
H  -2.8674420000  1.1991720000  1.3261110000
C  -4.1320280000  -0.0374570000  0.1090470000
C  -4.0570330000  -1.1657050000  -0.9243310000
H  -3.5913760000  -0.7904080000  -1.8420280000
H  -3.3905010000  -1.9412760000  -0.5414360000
C  -5.4077760000  -1.7938010000  -1.2551500000
H  -5.8993420000  -2.1578280000  -0.3482160000
H  -5.2855950000  -2.6453070000  -1.9291270000
H  -6.0854440000  -1.0873530000  -1.7413280000
N  -1.8593410000  0.8715610000  -0.4902150000
H  -2.1981680000  1.3343350000  -1.3189120000
C  -4.9632880000  1.1487120000  -0.3806000000
H  -5.9984050000  0.8654090000  -0.5829250000
H  -4.5538980000  1.5663870000  -1.3070290000
H  -4.9778510000  1.9468580000  0.3662050000
H  -4.5984150000  -0.4421340000  1.0144250000
C  4.1674590000  0.5224660000  -0.8091620000
H  3.3743400000  0.0390300000  -1.3813770000
H  5.0193610000  0.6558980000  -1.4889820000
C  4.5890970000  -0.3829280000  0.3541030000
H  3.7645420000  -0.4221580000  1.0699170000
H  5.4370290000  0.0721570000  0.8790640000
H  -0.1762460000  2.9442260000  -0.1409390000
H  2.5387950000  4.1536990000  0.5650400000
H  4.3801110000  2.5259910000  0.1232180000
H  1.6505880000  1.5016720000  -0.8106370000
H  2.5894040000  -3.1043450000  1.0566170000
H  1.3553070000  -1.3979990000  -1.1549740000