40
charge=-1, multiplicity=1, basis=def2-QZVPP, AUX_BASIS_CORR=rimp2-def2-QZVPPD, SCF_ALGORITHM=GDM, xc_grid=000099000590, mem_total=60000, num_basis=1605, num_pairs=913224, num_threads=16
C  3.4153690000  -0.6256640000  -1.2491440000
C  2.5945640000  -0.0848370000  -0.0744130000
H  4.0458810000  -1.4690690000  -0.9459390000
H  4.0679470000  0.1553160000  -1.6553990000
H  2.7580740000  -0.9665260000  -2.0535750000
C  3.5429880000  0.2012850000  1.0931230000
H  3.9878240000  -0.7245080000  1.4755420000
H  3.0052410000  0.6826200000  1.9138660000
H  4.3563290000  0.8670950000  0.7842610000
C  1.8572730000  1.2179530000  -0.4909970000
C  0.5503880000  1.2919320000  0.2258000000
H  1.6539010000  1.1722870000  -1.5719440000
H  2.5649050000  2.0696520000  -0.3722100000
C  -0.5196180000  2.2318970000  -0.3024770000
C  -1.8353170000  1.5528460000  -0.0204900000
H  -0.4000850000  2.3402000000  -1.3873380000
H  -0.4919110000  3.2584230000  0.1204020000
C  -2.2372970000  1.5311970000  1.4261530000
H  -1.4894230000  0.9941770000  2.0149770000
H  -3.2072620000  1.0610870000  1.5895020000
H  -2.2836090000  2.5557180000  1.8138700000
C  -2.4078600000  0.8037970000  -0.9618270000
C  -3.1718030000  -0.4629780000  -0.7349730000
C  -2.1477440000  -1.6262690000  -0.8992430000
H  -3.9905630000  -0.5958340000  -1.4559070000
H  -3.6124720000  -0.4999970000  0.2644280000
C  -0.9533160000  -1.6164660000  0.0252770000
H  -1.7965250000  -1.5915280000  -1.9396480000
H  -2.6957990000  -2.5771980000  -0.7935160000
C  0.1838140000  -0.8991910000  -0.2924250000
C  -1.2075910000  -2.1268860000  1.4163770000
H  -1.7700930000  -1.4189630000  2.0543300000
H  -0.2802660000  -2.3483610000  1.9517180000
H  -1.7979080000  -3.0544190000  1.4012810000
C  1.5281320000  -1.1140100000  0.3688730000
H  1.8988890000  -2.1295150000  0.1588950000
H  1.4030560000  -1.0552150000  1.4526080000
H  0.2557640000  -0.6190280000  -1.3439440000
H  0.6625690000  1.3521500000  1.3133760000
H  -1.9963430000  0.8938040000  -1.9673130000