32
charge=1, multiplicity=1, basis=def2-QZVPP, mem_total=30000, AUX_BASIS_CORR=rimp2-def2-QZVPPD, SCF_ALGORITHM=GDM, xc_grid=000099000590, num_basis=1365, num_pairs=648416, num_threads=8
C  -1.9125840000  -0.5850620000  0.3935680000
N  -0.5058150000  -0.9173880000  0.1541980000
N  0.2124880000  0.0798240000  0.2541820000
C  1.6288520000  0.0100380000  0.0534680000
C  2.4113330000  1.1168640000  0.3641160000
C  2.1854810000  -1.1665720000  -0.4411460000
C  3.7816370000  1.0371870000  0.1777050000
H  1.9786150000  2.0270360000  0.7547900000
C  3.5532460000  -1.2257820000  -0.6242450000
H  1.5527120000  -2.0101500000  -0.6778020000
C  4.3509880000  -0.1281680000  -0.3155430000
H  4.4036280000  1.8888540000  0.4193120000
H  4.0010770000  -2.1312590000  -1.0121580000
H  5.4221870000  -0.1831890000  -0.4624590000
C  -2.7516150000  -1.0047410000  -0.8395080000
C  -2.3280480000  -1.2888620000  1.6823500000
H  -1.7726150000  -0.9140170000  2.5447560000
H  -3.3899240000  -1.1067640000  1.8530280000
H  -2.1702570000  -2.3645710000  1.6044630000
C  -1.9516710000  0.9684430000  0.4449400000
C  -0.4937450000  1.3560070000  0.6078950000
C  -2.6150530000  1.3949980000  -0.8711080000
H  -3.1062170000  2.3648080000  -0.7968970000
H  -1.8643280000  1.4675400000  -1.6659520000
C  -3.5730810000  0.2431250000  -1.1735920000
H  -2.0880430000  -1.2504990000  -1.6722030000
H  -3.3531370000  -1.8883300000  -0.6312230000
H  -4.4507170000  0.3053850000  -0.5246220000
H  -3.9284590000  0.2428920000  -2.2032570000
H  -0.2043880000  1.6096500000  1.6280180000
H  -0.1548720000  2.1368760000  -0.0702840000
H  -2.5364040000  1.3038420000  1.3004370000