30
charge=0, multiplicity=2, basis=def2-QZVPP, AUX_BASIS_CORR=rimp2-def2-QZVPPD, SCF_ALGORITHM=GDM, xc_grid=000099000590, mem_total=30000, num_basis=1291, num_pairs=519899, num_threads=8
O  3.9859880000  0.8723830000  0.2481220000
C  3.1167490000  0.1178090000  0.0377570000
C  3.1275240000  -1.3527340000  -0.2466930000
C  4.5239600000  -1.9623830000  -0.2550010000
Cl  0.9771170000  0.8133550000  0.0218020000
C  -1.0578530000  1.4699210000  0.0076730000
H  2.6080790000  -1.4802160000  -1.2001160000
H  2.4731220000  -1.8109340000  0.4995120000
H  5.1516340000  -1.4954610000  -1.0148630000
H  4.4657270000  -3.0309870000  -0.4675460000
H  5.0153950000  -1.8311300000  0.7097230000
C  -1.8308130000  0.2027130000  0.0215360000
C  -1.1125680000  2.2921200000  -1.2537410000
C  -1.1330490000  2.3101260000  1.2582590000
C  -2.5244730000  -0.2441600000  -1.1060400000
C  -1.8769090000  -0.5951870000  1.1715450000
H  -0.8441180000  1.7125370000  -2.1359670000
H  -0.4223330000  3.1322120000  -1.1814770000
H  -2.1221330000  2.6949830000  -1.3979640000
H  -0.9199920000  1.7420760000  2.1614540000
H  -2.1426360000  2.7270910000  1.3534080000
H  -0.4246970000  3.1369550000  1.2050330000
C  -3.2427900000  -1.4315540000  -1.0834620000
C  -3.2794930000  -2.2067600000  0.0650520000
C  -2.5888270000  -1.7810170000  1.1938360000
H  -1.3288780000  -0.2951950000  2.0546410000
H  -3.7774530000  -1.7492000000  -1.9708030000
H  -3.8391720000  -3.1340010000  0.0829540000
H  -2.6035710000  -2.3799730000  2.0967270000
H  -2.5166050000  0.3417870000  -2.0146450000