24
charge=0, multiplicity=2, basis=def2-QZVPP, mem_total=15000, AUX_BASIS_CORR=rimp2-def2-QZVPPD, SCF_ALGORITHM=GDM, xc_grid=000099000590, num_basis=1017, num_pairs=401518, num_threads=4
C  2.4518060000  1.7616380000  -0.7641550000
C  2.1143170000  0.4200350000  -0.7160420000
H  1.9028210000  2.4568590000  -1.3864440000
H  3.1992810000  2.1726890000  -0.0947810000
C  2.9568630000  -0.6422320000  -0.0208250000
C  0.8936420000  -0.1267190000  0.7305250000
H  1.5073930000  0.0429020000  -1.5368940000
C  1.7936800000  -1.3469240000  0.6841650000
H  1.3765920000  -2.1274500000  0.0469740000
H  2.0113410000  -1.7913750000  1.6579470000
H  3.6262710000  -0.1675160000  0.7007850000
H  3.5613010000  -1.2558120000  -0.6925290000
H  -2.9326240000  -1.8202820000  -1.2890440000
C  -2.4754910000  -1.0233910000  -0.7142510000
C  -1.1382740000  -1.1140970000  -0.3621940000
H  -0.5708570000  -1.9830020000  -0.6703680000
C  -0.5201220000  -0.1036130000  0.3867730000
C  -1.2992040000  1.0019140000  0.7603080000
H  -0.8389550000  1.7958190000  1.3379520000
C  -2.6330850000  1.0931640000  0.4046670000
H  -3.2127540000  1.9571500000  0.7076140000
C  -3.2309200000  0.0789630000  -0.3352230000
H  -4.2757960000  0.1469510000  -0.6121250000
H  1.1667170000  0.5806380000  1.5084200000