7
charge=0, multiplicity=1, basis=def2-QZVPP, mem_total=3750, AUX_BASIS_CORR=rimp2-def2-QZVPPD, SCF_ALGORITHM=GDM, xc_grid=000099000590, num_basis=291, num_pairs=41499, num_threads=1
C  0.9857030000  -0.3979690000  0.7466340000
C  -0.0000020000  -0.0000010000  0.0000020000
C  -0.9857020000  0.3979700000  -0.7466350000
H  -1.5303010000  1.3067630000  -0.5174040000
H  -1.2908260000  -0.1677550000  -1.6195010000
H  2.0031350000  -0.0825400000  0.5456930000
H  0.8179990000  -1.0564630000  1.5912060000