12
charge=0, multiplicity=1, basis=def2-QZVPP, AUX_BASIS_CORR=rimp2-def2-QZVPPD, SCF_ALGORITHM=GDM, xc_grid=000099000590, mem_total=3750, num_basis=522, num_pairs=129196, num_threads=1
C  0.6635790000  1.1849830000  -0.0600030000
H  1.2331380000  -2.0905240000  -0.2074590000
H  -1.2331300000  -2.0905250000  -0.2074970000
H  1.2331380000  2.0905280000  -0.2074230000
H  2.3179040000  0.0000020000  -0.2293780000
C  -0.6635770000  1.1849830000  -0.0600240000
C  0.6635790000  -1.1849810000  -0.0600230000
N  -1.4024300000  -0.0000020000  0.1949250000
C  -0.6635770000  -1.1849820000  -0.0600450000
H  -1.2331300000  2.0905280000  -0.2074600000
N  1.4024220000  -0.0000020000  0.1949670000
H  -2.3178910000  0.0000020000  -0.2294660000