19
charge=0, multiplicity=1, basis=def2-QZVPP, mem_total=15000, AUX_BASIS_CORR=rimp2-def2-QZVPPD, SCF_ALGORITHM=GDM, xc_grid=000099000590, num_basis=840, num_pairs=294422, num_threads=4
C  -0.6583620000  -1.4649970000  -0.0000170000
C  0.1503080000  -0.3290190000  -0.0000150000
C  -0.3867310000  0.9779120000  -0.0000270000
C  -1.7764590000  1.1380460000  -0.0000470000
C  -2.5809470000  0.0164780000  -0.0000460000
C  -2.0262600000  -1.2736110000  -0.0000300000
H  -0.2352640000  -2.4621860000  -0.0000150000
H  -2.2139600000  2.1295820000  -0.0000580000
H  -3.6583490000  0.1282110000  -0.0000600000
H  -2.6840890000  -2.1342400000  -0.0000320000
C  0.7271590000  1.8807870000  -0.0000100000
C  1.8535620000  1.1153980000  0.0000010000
H  2.8908180000  1.4127670000  0.0000070000
N  1.5216610000  -0.2220820000  -0.0000260000
C  2.4440270000  -1.3317830000  0.0001490000
H  2.3077890000  -1.9531310000  0.8887260000
H  2.3081740000  -1.9531210000  -0.8884940000
H  3.4623380000  -0.9468110000  0.0003740000
H  0.6931340000  2.9582340000  -0.0000190000