15
charge=0, multiplicity=2, basis=def2-QZVPP, AUX_BASIS_CORR=rimp2-def2-QZVPPD, SCF_ALGORITHM=GDM, xc_grid=000099000590, mem_total=3750, num_basis=612, num_pairs=166749, num_threads=1
C  -1.9520050000  -0.4841390000  0.0827170000
C  -0.4866180000  -0.5833160000  0.3902660000
C  0.3175520000  0.6610390000  0.0480090000
H  -0.1043130000  -1.4650220000  -0.1398470000
H  -0.3962500000  -0.8371860000  1.4547960000
C  1.8096920000  0.4977400000  0.3441630000
H  -0.0813340000  1.5118220000  0.6048650000
H  0.1763400000  0.9024620000  -1.0090660000
C  2.4839860000  -0.5182240000  -0.5056890000
H  1.9576600000  0.2583960000  1.4036520000
H  2.2967550000  1.4752360000  0.2008870000
O  -2.4871980000  0.4715460000  -0.4130980000
H  -2.5499210000  -1.3816060000  0.3462020000
H  2.1714040000  -0.6655780000  -1.5332900000
H  3.3916010000  -1.0094880000  -0.1802030000