36
charge=0, multiplicity=1, basis=def2-QZVPP, AUX_BASIS_CORR=rimp2-def2-QZVPPD, SCF_ALGORITHM=GDM, xc_grid=000099000590, mem_total=60000, num_basis=1620, num_pairs=952195, num_threads=16
C  -1.1227840000  0.0000000000  0.0192480000
C  -0.3389120000  -1.2844190000  0.0400210000
C  -0.3389120000  1.2844190000  0.0400220000
C  0.2043100000  -1.5973900000  -1.3267330000
C  0.2043100000  1.5973910000  -1.3267320000
C  0.5756050000  -0.7327230000  -2.2743620000
C  0.5756060000  0.7327250000  -2.2743620000
H  0.3071610000  -2.6556800000  -1.5429480000
H  0.9496800000  -1.1692560000  -3.1949060000
H  0.9496800000  1.1692580000  -3.1949060000
H  0.3071610000  2.6556810000  -1.5429460000
C  0.7999220000  1.1728090000  1.1236190000
C  0.7999220000  -1.1728100000  1.1236180000
H  -1.0039900000  -2.0983660000  0.3328930000
C  1.6734490000  0.0000000000  0.7451330000
C  0.1795180000  -0.6651820000  2.4114120000
H  1.3078280000  -2.1304880000  1.2112230000
C  0.1795180000  0.6651800000  2.4114130000
H  -0.2692380000  -1.3056630000  3.1595840000
H  -0.2692380000  1.3056610000  3.1595850000
C  2.8897350000  0.0000000000  0.2115430000
C  3.6355670000  1.2591150000  -0.1289660000
C  3.6355670000  -1.2591150000  -0.1289670000
H  3.0965950000  -2.1643090000  0.1419220000
H  4.6074090000  -1.2764130000  0.3734640000
H  3.8331560000  -1.2990530000  -1.2044860000
H  3.0966020000  2.1643090000  0.1419380000
H  3.8331430000  1.2990620000  -1.2044870000
H  4.6074150000  1.2764060000  0.3734520000
C  -2.4683050000  0.0000000000  -0.0387610000
C  -3.2229770000  -1.2161620000  -0.0754450000
N  -3.8204420000  -2.1965670000  -0.1007900000
C  -3.2229770000  1.2161620000  -0.0754440000
N  -3.8204420000  2.1965670000  -0.1007890000
H  -1.0039900000  2.0983660000  0.3328940000
H  1.3078280000  2.1304870000  1.2112240000