27
charge=1, multiplicity=2, basis=def2-QZVPP, mem_total=30000, AUX_BASIS_CORR=rimp2-def2-QZVPPD, SCF_ALGORITHM=GDM, xc_grid=000099000590, num_basis=1282, num_pairs=465243, num_threads=8
C  -5.5843890000  -1.3792660000  0.0000210000
C  -4.9981850000  -1.0100130000  1.2044430000
C  -3.8281060000  -0.2735630000  1.1808180000
N  -3.3195880000  0.0396970000  -0.0000100000
C  -3.8279120000  -0.2739230000  -1.1808260000
C  -4.9979870000  -1.0103800000  -1.2044180000
F  -1.9818920000  0.9269280000  -0.0000310000
S  -0.1460320000  2.3524380000  -0.0000650000
H  -6.5017040000  -1.9543060000  0.0000330000
H  -5.4356890000  -1.2816530000  2.1555280000
H  -3.2941580000  0.0690420000  2.0574560000
H  -3.2938220000  0.0684150000  -2.0574810000
H  -5.4353350000  -1.2823110000  -2.1554920000
C  1.1837900000  1.2853010000  -0.0000310000
C  2.4929010000  1.8232640000  -0.0000640000
C  3.5850110000  0.9839920000  -0.0000380000
C  3.3966890000  -0.3993420000  0.0000210000
C  2.1087920000  -0.9445990000  0.0000550000
C  1.0114110000  -0.1187350000  0.0000300000
H  2.6241390000  2.8975930000  -0.0001090000
H  4.5879370000  1.3878860000  -0.0000630000
C  4.5473060000  -1.3528900000  0.0000510000
O  4.4172710000  -2.5453030000  0.0001010000
O  5.7302750000  -0.7292010000  0.0000160000
H  6.4291640000  -1.3996310000  0.0000380000
H  2.0036910000  -2.0217500000  0.0001020000
H  0.0101360000  -0.5255650000  0.0000570000