38
charge=1, multiplicity=2, basis=def2-QZVPP, AUX_BASIS_CORR=rimp2-def2-QZVPPD, SCF_ALGORITHM=GDM, xc_grid=000099000590, mem_total=60000, num_basis=1572, num_pairs=798709, num_threads=16
F  0.7672910000  -0.8242930000  -0.6831840000
N  -0.7336140000  -0.3722330000  -0.3722180000
C  -0.6226500000  0.9995810000  0.1558570000
C  -2.0310740000  1.3883650000  0.6689770000
C  -3.0657900000  0.3555160000  0.1855610000
C  -1.2318490000  -1.3197460000  0.6394180000
C  -2.7294110000  -0.9886240000  0.8564470000
C  -4.4822530000  0.7970610000  0.5194410000
H  -4.7359060000  1.7234620000  0.0002130000
C  -1.4908650000  -0.4365330000  -1.6317890000
C  -2.8829940000  0.1796600000  -1.3338750000
H  -0.2851150000  1.6276350000  -0.6667170000
H  0.1430100000  0.9866970000  0.9308040000
H  -2.0338290000  1.4343390000  1.7590640000
H  -2.2849360000  2.3826510000  0.3004630000
H  -0.6272820000  -1.1741020000  1.5324960000
H  -1.0667410000  -2.3243120000  0.2557040000
H  -2.9347700000  -0.9423060000  1.9261900000
H  -3.3537010000  -1.7795980000  0.4379120000
H  -4.5944370000  0.9718080000  1.5913470000
H  -5.2092490000  0.0373790000  0.2252230000
H  -1.5422790000  -1.4830910000  -1.9255650000
H  -0.9293180000  0.1166460000  -2.3814080000
H  -3.6569870000  -0.4738520000  -1.7371940000
H  -2.9787060000  1.1451770000  -1.8328580000
C  2.8399220000  -1.2258350000  -0.3691630000
H  3.1364050000  -1.3343040000  -1.4053160000
C  2.6867060000  -2.4069760000  0.4944930000
C  2.9597790000  0.1159080000  0.2203860000
O  2.4853620000  0.4289900000  1.2889820000
O  3.6174800000  0.9481050000  -0.5840090000
C  3.8288920000  2.2808740000  -0.0910850000
H  3.6826260000  -2.7982670000  0.7455010000
H  2.1563450000  -3.2116640000  -0.0165960000
H  2.1935410000  -2.1492840000  1.4312460000
H  2.8737490000  2.7834510000  0.0590530000
H  4.4122260000  2.7844390000  -0.8555630000
H  4.3718160000  2.2491070000  0.8523890000