31
charge=0, multiplicity=2, basis=def2-QZVPP, AUX_BASIS_CORR=rimp2-def2-QZVPPD, SCF_ALGORITHM=GDM, xc_grid=000099000590, mem_total=30000, num_basis=1335, num_pairs=629930, num_threads=8
C  -3.6250150000  0.2417900000  -1.0481480000
C  -2.3107230000  0.2158480000  -1.4922110000
C  -1.2736210000  0.0135100000  -0.5892680000
C  -1.5508690000  -0.1511250000  0.7693540000
C  -2.8675630000  -0.1375550000  1.2034870000
C  -3.9041610000  0.0612510000  0.2996770000
H  -4.4312450000  0.3963900000  -1.7547410000
H  -2.0894800000  0.3477800000  -2.5455880000
H  -3.0851540000  -0.2739290000  2.2571290000
H  -4.9296670000  0.0755400000  0.6482900000
C  0.6716790000  -1.2472120000  1.0819620000
H  1.5954030000  -1.1864270000  1.6613980000
H  0.3192990000  -2.2855110000  1.1200750000
N  0.9720390000  -0.9085590000  -0.3031880000
C  -0.3689000000  -0.3076500000  1.6811420000
H  -0.6729800000  -0.6905700000  2.6565440000
H  0.0953270000  0.6697210000  1.8392930000
O  1.1730000000  2.2104030000  -0.2063040000
C  0.1492450000  0.0012370000  -1.0080440000
O  2.0879140000  1.6548840000  0.6646850000
C  3.3703570000  1.6501270000  0.0604290000
H  0.2892890000  -0.0949410000  -2.0836790000
H  0.5824330000  1.1458780000  -0.7333190000
H  4.0445950000  1.2286340000  0.8062350000
H  3.3729560000  1.0224340000  -0.8339360000
H  3.6710370000  2.6683000000  -0.1935210000
C  2.0547710000  -1.4840230000  -0.9210550000
C  2.9208940000  -2.3506540000  -0.3834990000
H  2.1715160000  -1.1804890000  -1.9559340000
H  2.8532290000  -2.7015370000  0.6362270000
H  3.7252970000  -2.7369100000  -0.9921490000