16
charge=-1, multiplicity=1, basis=def2-QZVPP, AUX_BASIS_CORR=rimp2-def2-QZVPPD, SCF_ALGORITHM=GDM, xc_grid=000099000590, mem_total=7500, num_basis=669, num_pairs=187940, num_threads=2
C  -1.4692280000  1.4404270000  0.1288380000
C  -1.5280160000  -0.0609040000  -0.0265570000
C  -0.4892840000  -0.8319500000  0.7395530000
O  -2.3538370000  -0.5894280000  -0.7494850000
C  0.8684670000  -0.6680920000  0.0605180000
C  1.7808670000  0.2352760000  0.4256710000
C  3.0432970000  0.2468140000  -0.4031290000
H  -2.0202090000  1.7100530000  1.0367760000
H  -0.4311780000  1.7552290000  0.2590520000
H  -1.9392670000  1.9283040000  -0.7257960000
H  3.9264070000  0.0819880000  0.2269210000
H  3.0664370000  -0.5122580000  -1.2172740000
H  3.1954150000  1.2306160000  -0.8656870000
H  -0.8029800000  -1.8790620000  0.7865170000
H  -0.4046730000  -0.4211060000  1.7492550000
H  1.0041310000  -1.3477710000  -0.8032440000