22
charge=0, multiplicity=2, basis=def2-QZVPP, AUX_BASIS_CORR=rimp2-def2-QZVPPD, SCF_ALGORITHM=GDM, xc_grid=000099000590, mem_total=15000, num_basis=862, num_pairs=298603, num_threads=4
Si  0.0000010000  -0.4447240000  -0.4764700000
C  -1.5452470000  -1.0073660000  0.4626550000
C  -2.8719630000  -0.5223230000  -0.1282190000
C  1.5452500000  -1.0073590000  0.4626580000
C  2.8719660000  -0.5223200000  -0.1282200000
C  -0.0000030000  1.4386360000  -0.6795750000
C  -0.0000050000  2.1975510000  0.6556080000
H  -1.5365490000  -2.1000800000  0.5212290000
H  -1.4475470000  -0.6555760000  1.4979660000
H  -3.0038560000  -0.8749040000  -1.1540440000
H  -3.7252510000  -0.8777130000  0.4542280000
H  -2.9252400000  0.5689680000  -0.1505650000
H  1.5365520000  -2.1000730000  0.5212390000
H  1.4475510000  -0.6555620000  1.4979660000
H  3.7252540000  -0.8777050000  0.4542300000
H  3.0038590000  -0.8749090000  -1.1540430000
H  2.9252420000  0.5689710000  -0.1505750000
H  -0.8716730000  1.7276810000  -1.2739870000
H  0.8716670000  1.7276840000  -1.2739860000
H  -0.8805130000  1.9544500000  1.2555540000
H  0.8805050000  1.9544550000  1.2555540000
H  -0.0000080000  3.2795370000  0.5003690000