21
charge=0, multiplicity=1, basis=def2-QZVPP, mem_total=15000, AUX_BASIS_CORR=rimp2-def2-QZVPPD, SCF_ALGORITHM=GDM, xc_grid=000099000590, num_basis=954, num_pairs=347509, num_threads=4
C  0.1113670000  -1.0234290000  -0.1708230000
N  -1.2632800000  -1.3061030000  -0.0345650000
C  -2.2126350000  -0.3472110000  0.0773060000
N  -1.9400430000  0.9218400000  0.0573870000
C  -0.6271150000  1.2705350000  -0.0669470000
C  0.4161950000  0.3617800000  -0.2002630000
N  1.7398340000  0.8659670000  -0.3373890000
C  2.7736760000  0.3395720000  0.5387180000
O  3.3689780000  -0.8498270000  0.0934960000
O  0.8839210000  -1.9795380000  -0.2306010000
N  -3.5009850000  -0.7558530000  0.2553430000
H  -3.7812510000  -1.6675280000  -0.0660670000
H  -4.1899020000  -0.0241710000  0.1849670000
H  -1.4864460000  -2.2884580000  0.0485330000
N  -0.3800130000  2.5948360000  -0.0858530000
H  -1.1254580000  3.2288420000  0.1420780000
H  0.5844340000  2.8863610000  -0.0645140000
H  2.6497210000  -1.4938030000  -0.0368910000
H  3.5823440000  1.0692320000  0.6038650000
H  2.3221050000  0.2251950000  1.5315090000
H  2.0637470000  0.8469570000  -1.2990500000