20
charge=0, multiplicity=1, basis=def2-QZVPP, AUX_BASIS_CORR=rimp2-def2-QZVPPD, SCF_ALGORITHM=GDM, xc_grid=000099000590, mem_total=7500, num_basis=816, num_pairs=256384, num_threads=2
C  -1.4125570000  0.6742720000  -0.0000250000
O  -2.7410370000  0.4185970000  -0.0000160000
C  -0.4152280000  -0.2135430000  0.0000190000
C  1.0084390000  0.1401790000  0.0000010000
C  1.3588960000  1.6024180000  -0.0000480000
C  1.9161610000  -0.8443880000  0.0000210000
C  3.4082100000  -0.7400180000  0.0000030000
C  -3.1441350000  -0.9349980000  0.0000450000
H  2.4326990000  1.7712810000  0.0000070000
H  0.9430270000  2.1004080000  -0.8803300000
H  0.9429280000  2.1004880000  0.8801400000
H  3.8299360000  -1.2401560000  0.8774140000
H  3.8299210000  -1.2403160000  -0.8773240000
H  3.7692400000  0.2872050000  -0.0000960000
H  -4.2317050000  -0.9304990000  0.0000410000
H  -2.7790750000  -1.4534330000  -0.8921390000
H  -2.7790810000  -1.4533500000  0.8922800000
H  1.5339460000  -1.8630750000  0.0000570000
H  -1.2455770000  1.7431900000  -0.0000770000
H  -0.6366790000  -1.2740450000  0.0000680000