21
charge=0, multiplicity=2, basis=def2-QZVPP, AUX_BASIS_CORR=rimp2-def2-QZVPPD, SCF_ALGORITHM=GDM, xc_grid=000099000590, mem_total=15000, num_basis=846, num_pairs=320945, num_threads=4
C  -0.0327640000  0.8087120000  0.5193750000
C  -1.4221930000  1.1633220000  0.1167950000
C  -2.2350290000  -0.0564080000  -0.1717770000
C  -1.1779540000  -1.1545530000  -0.3661580000
H  -2.8975770000  0.0565150000  -1.0353560000
H  -2.8885140000  -0.2996120000  0.6811460000
C  -0.0062180000  -0.7452620000  0.5433020000
H  -0.8445220000  -1.1537350000  -1.4083850000
H  -1.5527950000  -2.1563780000  -0.1473800000
C  1.3978010000  -1.1675550000  0.0575030000
H  -1.8230070000  2.1687350000  0.1370540000
C  1.1105650000  1.1827050000  -0.4486480000
C  2.1844330000  0.1433790000  -0.1255650000
H  1.4488810000  2.2132530000  -0.3256750000
H  0.7707380000  1.0682240000  -1.4826760000
H  2.6823860000  0.4142310000  0.8108140000
H  2.9575760000  0.0700130000  -0.8929950000
H  1.3191950000  -1.6939570000  -0.8978110000
H  1.8943460000  -1.8481040000  0.7511120000
H  -0.1992940000  -1.1063340000  1.5565790000
H  0.2207410000  1.2211060000  1.5046110000