35
charge=1, multiplicity=1, basis=def2-QZVPP, mem_total=60000, AUX_BASIS_CORR=rimp2-def2-QZVPPD, SCF_ALGORITHM=GDM, xc_grid=000099000590, num_basis=1482, num_pairs=751514, num_threads=16
C  -1.7189420000  1.0928350000  0.4428750000
C  -2.1171930000  1.3991950000  -1.0097700000
C  -3.3105620000  0.5876080000  -1.4955750000
C  -3.0047810000  -0.9003370000  -1.3729200000
C  -2.7655370000  -1.2728240000  0.0844950000
C  -1.7124970000  -0.4162980000  0.7876120000
H  -3.5324720000  0.8524680000  -2.5304020000
H  -1.2690890000  1.1798710000  -1.6703390000
H  -2.3038410000  2.4717160000  -1.0979270000
H  -2.1255040000  -1.1465290000  -1.9793810000
H  -3.8271520000  -1.5006960000  -1.7645820000
H  -2.4796110000  -2.3215650000  0.1900850000
H  -3.6984190000  -1.1462600000  0.6409750000
H  -4.2029190000  0.8343730000  -0.9102260000
C  -1.7614110000  -0.6753420000  2.3037760000
H  -0.9961450000  -0.1211620000  2.8498310000
H  -1.6319940000  -1.7370670000  2.5136330000
H  -2.7388820000  -0.3677560000  2.6752830000
C  -0.2574630000  1.4500920000  0.6666140000
N  -0.3562520000  -0.8400810000  0.3843470000
N  0.3976420000  0.1357920000  0.3508240000
C  1.7911940000  0.0058510000  0.0568270000
C  2.2718320000  -1.2117440000  -0.4180590000
C  2.6296980000  1.0960980000  0.2613760000
C  3.6203290000  -1.3286090000  -0.6925330000
H  1.5953440000  -2.0407320000  -0.5708810000
C  3.9804690000  0.9576470000  -0.0127880000
H  2.2550040000  2.0363470000  0.6409610000
C  4.4740600000  -0.2482580000  -0.4900000000
H  4.0094660000  -2.2656360000  -1.0686700000
H  4.6465640000  1.7950230000  0.1475350000
H  5.5298590000  -0.3489180000  -0.7073670000
H  0.0055740000  1.7038750000  1.6944100000
H  0.1252490000  2.2104910000  -0.0095220000
H  -2.3659430000  1.6266960000  1.1388070000