8
charge=0, multiplicity=2, basis=def2-QZVPP, AUX_BASIS_CORR=rimp2-def2-QZVPPD, SCF_ALGORITHM=GDM, xc_grid=000099000590, mem_total=3750, num_basis=334, num_pairs=55512, num_threads=1
C  1.6183750000  -0.3358800000  0.0000000000
C  0.4371630000  0.6209980000  0.0000000000
H  1.6005060000  -0.9780210000  0.8817300000
H  2.5602700000  0.2192830000  -0.0000230000
H  1.6004800000  -0.9780530000  -0.8817060000
S  -1.1882030000  -0.1590390000  0.0000000000
H  0.4583770000  1.2853470000  -0.8699520000
H  0.4583800000  1.2853510000  0.8699490000