22
charge=0, multiplicity=1, basis=def2-QZVPP, mem_total=15000, AUX_BASIS_CORR=rimp2-def2-QZVPPD, SCF_ALGORITHM=GDM, xc_grid=000099000590, num_basis=930, num_pairs=362235, num_threads=4
C  -0.0129130000  2.0294090000  -0.0490130000
C  -1.1030830000  -1.3839530000  -0.8236810000
C  -0.3988870000  -1.1323870000  0.5255620000
C  0.8024370000  -0.1809380000  0.4268000000
O  0.6283100000  0.8759640000  -0.5189090000
H  -0.0042350000  -2.0914850000  0.8739530000
O  -1.3375610000  -0.7401230000  1.5067320000
O  -2.1602210000  -0.4603710000  -1.0691980000
C  2.0561630000  -0.9151440000  -0.0244020000
H  0.9833910000  0.2550100000  1.4168740000
O  3.1487720000  -0.0386920000  -0.1634180000
H  1.8555030000  -1.4407240000  -0.9680360000
H  2.3344240000  -1.6578920000  0.7241700000
O  -1.3507300000  1.7917190000  0.2903250000
H  2.8498390000  0.6905460000  -0.7176120000
H  -2.8765820000  -0.6823820000  -0.4653820000
H  -0.4057140000  -1.2787790000  -1.6534330000
H  -1.5067160000  0.2084860000  1.3850510000
H  -1.5060900000  -2.3997090000  -0.8371550000
H  -1.7577860000  1.3042380000  -0.4494270000
H  0.4724120000  2.4079830000  0.8558390000
H  0.0706920000  2.7548110000  -0.8607040000