63
charge=1, multiplicity=1, basis=def2-QZVPP, mem_total=240000, AUX_BASIS_CORR=rimp2-def2-QZVPPD, SCF_ALGORITHM=GDM, xc_grid=000099000590, num_basis=2781, num_pairs=1968346, num_threads=64
N  0.4640240000  -0.0675130000  -1.3971760000
C  1.8135000000  -0.0541470000  -0.9764410000
C  2.6519090000  -1.0077220000  -1.5450200000
C  3.9896910000  -1.0949880000  -1.1949400000
C  4.5119620000  -0.2121260000  -0.2536980000
C  3.6726850000  0.7450010000  0.3169240000
C  2.3411170000  0.8260450000  -0.0294770000
O  5.7917450000  -0.2028610000  0.1642120000
C  6.6945080000  -1.1532390000  -0.3779540000
C  -0.5955370000  0.7735560000  -1.1549740000
C  -0.3180490000  2.1770160000  -0.6930440000
C  0.4224170000  3.0170970000  -1.5232880000
C  0.6695860000  4.3261560000  -1.1440730000
C  0.1788300000  4.8047090000  0.0645690000
C  -0.5649360000  3.9715140000  0.8874520000
C  -0.8177650000  2.6588240000  0.5107850000
C  -1.6826490000  0.6695780000  -2.2029500000
O  1.3650580000  -1.9520120000  1.9810120000
C  0.4469710000  -1.2143630000  1.7284130000
O  0.2906500000  -0.0017170000  2.2432640000
C  1.2700250000  0.3972160000  3.2174750000
C  -0.6637020000  -1.5638280000  0.8019100000
C  -2.8671530000  -1.1145250000  0.0995440000
C  -2.9485320000  -2.3255810000  -0.5231320000
N  -1.8065520000  -3.0879270000  -0.5376850000
C  -0.6777300000  -2.7750310000  0.1530840000
C  -4.1549500000  -2.9368340000  -1.1546580000
C  -4.0483060000  -0.2134760000  0.1724950000
O  -3.7131650000  0.9922670000  0.6201830000
C  -4.7830200000  1.9494970000  0.7147600000
C  0.4006730000  -3.8039020000  0.1693270000
O  -5.1596620000  -0.5304970000  -0.1658770000
H  6.7956600000  -1.0276910000  -1.4593760000
H  -5.5287030000  1.6040000000  1.4288520000
H  -0.9489030000  4.3429900000  1.8296960000
H  0.2781770000  -0.7882530000  -2.0803650000
H  6.3747460000  -2.1736730000  -0.1497800000
H  7.6517900000  -0.9602210000  0.0983490000
H  1.2479040000  4.9737040000  -1.7911980000
H  0.3755350000  5.8272290000  0.3618480000
H  -5.2504450000  2.0885830000  -0.2589640000
H  -4.3170900000  2.8690650000  1.0555940000
H  -1.3545210000  1.1623220000  -3.1215270000
H  -2.5847370000  1.1741740000  -1.8620030000
H  -1.9298080000  -0.3690190000  -2.4385970000
H  -1.8497860000  -3.9913710000  -0.9890220000
H  -1.2231640000  0.2564310000  -0.0797800000
H  -4.9135630000  -3.1475750000  -0.4002400000
H  -3.8931830000  -3.8666090000  -1.6623480000
H  -4.6158570000  -2.2536030000  -1.8656320000
H  1.3623660000  -3.3564960000  -0.0784600000
H  0.1741940000  -4.6100020000  -0.5305200000
H  0.5123090000  -4.2199850000  1.1710770000
H  1.0526160000  1.4388350000  3.4348440000
H  2.2728830000  0.2798370000  2.8128750000
H  1.1646240000  -0.2122480000  4.1139840000
H  0.8190170000  2.6419400000  -2.4597940000
H  -1.3868430000  2.0038700000  1.1573140000
H  2.2605280000  -1.6935870000  -2.2901290000
H  1.7220270000  1.5723000000  0.4400960000
H  4.0947180000  1.4284640000  1.0424790000
H  4.6093670000  -1.8455170000  -1.6635610000
N  -1.6886360000  -0.6542760000  0.6653460000