23
charge=-1, multiplicity=1, basis=def2-QZVPP, mem_total=15000, AUX_BASIS_CORR=rimp2-def2-QZVPPD, SCF_ALGORITHM=GDM, xc_grid=000099000590, num_basis=1041, num_pairs=408107, num_threads=4
N  -1.4002630000  -1.0377850000  1.1066940000
C  -1.7460270000  0.2141970000  0.4284850000
C  -3.2239140000  0.1923930000  0.0581680000
O  -3.8524160000  1.1656890000  -0.2644890000
O  -3.7570620000  -1.0344470000  0.0802380000
C  -0.8999650000  0.3704660000  -0.8615400000
H  -1.2045790000  -0.4102970000  -1.5671220000
H  -1.1741260000  1.3290400000  -1.3092180000
C  0.5721060000  0.2617790000  -0.5907010000
C  1.2878070000  -0.9078600000  -0.8742570000
H  0.7776250000  -1.7208900000  -1.3900320000
C  2.6175970000  -1.0635750000  -0.5343960000
H  3.1452400000  -1.9799800000  -0.7783410000
C  3.3659320000  -0.0372870000  0.1408330000
C  2.6035160000  1.1582590000  0.4058950000
H  3.1256970000  1.9727360000  0.8979200000
C  1.2776780000  1.2862460000  0.0566480000
H  0.7596970000  2.2163290000  0.2880880000
O  4.5759260000  -0.1642740000  0.4672590000
H  -1.5744190000  1.0932210000  1.0545920000
H  -3.0260570000  -1.6011850000  0.4268140000
H  -1.4496450000  -0.9371100000  2.1133730000
H  -0.4375550000  -1.2808200000  0.8781870000