10
charge=0, multiplicity=1, basis=def2-QZVPP, mem_total=3750, AUX_BASIS_CORR=rimp2-def2-QZVPPD, SCF_ALGORITHM=GDM, xc_grid=000099000590, num_basis=394, num_pairs=75095, num_threads=1
H  0.0000020000  -1.0867260000  1.2397800000
P  0.0000000000  -0.6550730000  -0.1127680000
C  -1.4197410000  0.5274960000  0.0221630000
H  -1.5049490000  1.0901390000  -0.9091650000
H  -2.3477510000  -0.0309490000  0.1537320000
H  -1.3118390000  1.2322480000  0.8483230000
C  1.4197410000  0.5274960000  0.0221630000
H  2.3477480000  -0.0309500000  0.1537490000
H  1.5049610000  1.0901280000  -0.9091710000
H  1.3118310000  1.2322580000  0.8483140000