5
charge=0, multiplicity=2, basis=def2-QZVPP, AUX_BASIS_CORR=rimp2-def2-QZVPPD, SCF_ALGORITHM=GDM, xc_grid=000099000590, mem_total=3750, num_basis=298, num_pairs=43483, num_threads=1
S  -1.4799970000  -0.0404220000  0.0000640000
C  0.3235190000  -0.0041060000  0.0000020000
F  0.7169110000  1.2756110000  -0.0011720000
F  0.8492060000  -0.6015000000  -1.0733130000
F  0.8493090000  -0.5995120000  1.0743710000