22
charge=0, multiplicity=2, basis=def2-QZVPP, AUX_BASIS_CORR=rimp2-def2-QZVPPD, SCF_ALGORITHM=GDM, xc_grid=000099000590, mem_total=15000, num_basis=876, num_pairs=305748, num_threads=4
C  2.0065620000  -0.2436410000  -0.2077900000
C  1.3010070000  1.0779430000  -0.4654760000
C  -0.0733890000  1.1704700000  0.2014870000
H  1.2068960000  1.2114300000  -1.5446330000
H  1.9499460000  1.8760890000  -0.0912330000
C  -1.0568530000  0.1109790000  -0.2822680000
H  -0.4823870000  2.1652100000  -0.0008000000
H  0.0334310000  1.1054660000  1.2892760000
C  -2.4326480000  0.2328410000  0.3636030000
N  2.3393280000  -0.9833200000  -1.1531320000
C  2.2986110000  -0.6327990000  1.2246800000
H  2.8454940000  0.1700800000  1.7243380000
H  2.8876560000  -1.5471410000  1.2607850000
H  1.3649600000  -0.7916080000  1.7678760000
C  -3.4122810000  -0.8286590000  -0.1231500000
H  -2.8399120000  1.2293320000  0.1608130000
H  -2.3273320000  0.1635800000  1.4520000000
H  -4.3888680000  -0.7213940000  0.3533960000
H  -3.0431660000  -1.8340570000  0.0956230000
H  -3.5598060000  -0.7606140000  -1.2041060000
H  -1.1562370000  0.1821930000  -1.3714480000
H  -0.6520220000  -0.8881330000  -0.0864800000