12
charge=0, multiplicity=1, basis=def2-QZVPP, AUX_BASIS_CORR=rimp2-def2-QZVPPD, SCF_ALGORITHM=GDM, xc_grid=000099000590, mem_total=3750, num_basis=522, num_pairs=130011, num_threads=1
C  -0.0500850000  -1.1943860000  0.0000060000
C  0.0253940000  1.2234890000  -0.0000230000
C  -1.2594940000  0.8741660000  0.0000070000
C  -1.4714560000  -0.6161110000  0.0000400000
H  0.1656750000  -1.8058550000  0.8774640000
H  -2.0508950000  -0.9223780000  -0.8751050000
H  -2.0508330000  -0.9223420000  0.8752390000
H  0.1656300000  -1.8058370000  -0.8774760000
C  0.8799210000  0.0163290000  -0.0000140000
O  2.0853870000  -0.0198360000  -0.0000220000
H  -2.0908800000  1.5693540000  0.0000090000
H  0.4325220000  2.2248220000  -0.0000460000