12
charge=0, multiplicity=2, basis=def2-QZVPP, AUX_BASIS_CORR=rimp2-def2-QZVPPD, SCF_ALGORITHM=GDM, xc_grid=000099000590, mem_total=3750, num_basis=602, num_pairs=163724, num_threads=1
C  1.3359950000  0.0000000000  0.0001020000
C  0.6553540000  -1.2132710000  0.0000420000
C  -0.7237190000  -1.2103840000  -0.0000590000
C  -1.4473130000  0.0000000000  -0.0000950000
C  -0.7237190000  1.2103840000  -0.0000490000
C  0.6553540000  1.2132710000  0.0000520000
S  -3.1649140000  0.0000000000  -0.0002290000
H  1.2095160000  -2.1422610000  0.0000750000
H  -1.2714750000  -2.1436440000  -0.0001080000
H  -1.2714760000  2.1436430000  -0.0000900000
H  1.2095160000  2.1422610000  0.0000910000
Cl  3.0735790000  0.0000000000  0.0002190000