55
charge=0, multiplicity=2, basis=def2-QZVPP, mem_total=120000, AUX_BASIS_CORR=rimp2-def2-QZVPPD, SCF_ALGORITHM=GDM, xc_grid=000099000590, num_basis=2215, num_pairs=1396576, num_threads=32
C  1.5208630000  -0.3800490000  -1.7335570000
C  2.6529560000  0.0554050000  -1.1141860000
F  2.8369290000  1.4090080000  -1.0658650000
Si  -0.4050250000  0.0047330000  -0.0856050000
H  1.0532300000  0.3496940000  -2.3858100000
Si  -0.0217100000  2.0272340000  1.0349590000
Si  -0.4814320000  -1.8031940000  1.4013870000
Si  -2.3927040000  0.1082170000  -1.3240040000
C  1.4306560000  1.8467870000  2.2229500000
H  1.5839580000  2.7732550000  2.7838220000
H  1.2658280000  1.0448570000  2.9464410000
H  2.3531280000  1.6323570000  1.6797350000
C  0.3442690000  3.4270970000  -0.1674660000
H  0.4997300000  4.3628950000  0.3777060000
H  1.2448000000  3.2183720000  -0.7463310000
H  -0.4803810000  3.5827290000  -0.8658770000
C  -1.5583790000  2.4926030000  2.0292290000
H  -1.8311700000  1.7146370000  2.7449150000
H  -1.3863580000  3.4180290000  2.5873300000
H  -2.4179000000  2.6570270000  1.3749050000
C  1.2348840000  -2.2773620000  2.0225800000
H  1.1569650000  -3.0589510000  2.7839370000
H  1.8648500000  -2.6612910000  1.2183580000
H  1.7507060000  -1.4256490000  2.4710470000
C  -1.5323180000  -1.3667620000  2.9066550000
H  -2.5388990000  -1.0569240000  2.6182000000
H  -1.6233400000  -2.2290230000  3.5741870000
H  -1.0846070000  -0.5505470000  3.4782610000
C  -1.2414350000  -3.3137670000  0.5648570000
H  -1.2627670000  -4.1623750000  1.2547840000
H  -0.6709190000  -3.6155270000  -0.3162490000
H  -2.2684160000  -3.1223170000  0.2458800000
C  -3.8859670000  -0.1465310000  -0.1975730000
H  -3.9113050000  0.5964490000  0.6025860000
H  -4.8166880000  -0.0595820000  -0.7664480000
H  -3.8730290000  -1.1344190000  0.2683440000
C  -2.5652090000  1.7885070000  -2.1607220000
H  -3.4587810000  1.8108490000  -2.7912740000
H  -2.6579430000  2.5920740000  -1.4269070000
H  -1.7045770000  2.0160920000  -2.7940720000
C  -2.4366180000  -1.2200270000  -2.6628650000
H  -1.6509210000  -1.0668390000  -3.4065310000
H  -2.3121700000  -2.2211600000  -2.2441800000
H  -3.3959780000  -1.1963970000  -3.1880060000
C  1.3199440000  -1.8309640000  -2.0993550000
H  1.9183590000  -2.0928440000  -2.9773510000
H  1.6040780000  -2.5032170000  -1.2901380000
H  0.2766470000  -2.0304900000  -2.3375230000
C  3.6461810000  -0.6677730000  -0.2846020000
C  5.0923770000  -0.3913040000  -0.7025450000
H  3.4371790000  -1.7359240000  -0.3387470000
H  3.5080290000  -0.3745170000  0.7640310000
H  5.2736030000  -0.7242220000  -1.7264020000
H  5.7869850000  -0.9161350000  -0.0443910000
H  5.3146700000  0.6749160000  -0.6501610000