32
charge=0, multiplicity=2, basis=def2-QZVPP, AUX_BASIS_CORR=rimp2-def2-QZVPPD, SCF_ALGORITHM=GDM, xc_grid=000099000590, mem_total=30000, num_basis=1365, num_pairs=645831, num_threads=8
C  -2.3834680000  -0.3357690000  -0.2100080000
C  -2.0087070000  -1.0128300000  0.9618310000
C  -0.8237390000  -1.7037010000  1.0385970000
C  0.0431490000  -1.7574490000  -0.0753860000
C  -0.3452570000  -1.1021990000  -1.2650240000
C  -1.5358890000  -0.4019790000  -1.3147440000
C  -3.6445560000  0.4818100000  -0.2503490000
C  -3.4157010000  1.9157220000  0.2393160000
H  -4.4093660000  0.0043180000  0.3677010000
H  -4.0324430000  0.5035890000  -1.2718000000
H  -3.0477930000  1.9234370000  1.2676230000
H  -4.3420570000  2.4927700000  0.2062720000
H  -2.6757870000  2.4252270000  -0.3818110000
O  1.1748380000  -2.4065360000  0.0134480000
H  -2.6672520000  -0.9796220000  1.8232240000
H  -0.5173010000  -2.2138540000  1.9428530000
H  -1.8208980000  0.1001560000  -2.2329550000
H  0.3052540000  -1.1647000000  -2.1260900000
H  2.0785470000  -1.7603830000  -0.2957650000
O  2.9052990000  -0.8814360000  -0.4128900000
O  2.2081120000  0.1457970000  -0.9789290000
C  2.2254380000  1.3102550000  -0.1137420000
C  1.3636350000  1.0889740000  1.0903590000
C  1.7384940000  2.4463200000  -0.9899340000
H  3.2655500000  1.4532710000  0.1878700000
H  2.3729560000  2.5531010000  -1.8703340000
H  1.7567240000  3.3795470000  -0.4256420000
H  0.7133460000  2.2603600000  -1.3166100000
C  1.8410070000  0.9594590000  2.3171980000
H  0.2951060000  1.0305680000  0.9026380000
H  2.9064560000  0.9983950000  2.5155880000
H  1.1865180000  0.7995320000  3.1655230000