29
charge=1, multiplicity=2, basis=def2-QZVPP, AUX_BASIS_CORR=rimp2-def2-QZVPPD, SCF_ALGORITHM=GDM, xc_grid=000099000590, mem_total=30000, num_basis=1342, num_pairs=500517, num_threads=8
C  5.5801860000  -1.3941970000  0.0000080000
C  4.9969840000  -1.0202340000  1.2044320000
C  3.8331030000  -0.2741080000  1.1808430000
N  3.3274190000  0.0438500000  0.0000000000
C  3.8330970000  -0.2741300000  -1.1808400000
C  4.9969790000  -1.0202570000  -1.2044200000
F  1.9974880000  0.9374950000  -0.0000050000
S  0.1601530000  2.3659880000  -0.0000090000
H  6.4925550000  -1.9770470000  0.0000110000
H  5.4320140000  -1.2958540000  2.1555000000
H  3.3015760000  0.0725580000  2.0573510000
H  3.3015670000  0.0725200000  -2.0573520000
H  5.4320040000  -1.2958950000  -2.1554850000
C  -1.1645310000  1.2947240000  -0.0000060000
C  -0.9909690000  -0.1101940000  -0.0000100000
C  -2.0850920000  -0.9374040000  -0.0000070000
C  -3.3818720000  -0.4052370000  0.0000010000
C  -3.5640070000  0.9801630000  0.0000050000
C  -2.4761910000  1.8258770000  0.0000010000
H  0.0114900000  -0.5145340000  -0.0000160000
H  -1.9775970000  -2.0143840000  -0.0000110000
C  -4.5366890000  -1.3781780000  0.0000030000
O  -4.2981980000  -2.5612220000  -0.0000070000
C  -5.9401650000  -0.8425970000  0.0000180000
H  -6.1187400000  -0.2231120000  -0.8822160000
H  -6.1187230000  -0.2231100000  0.8822530000
H  -6.6349120000  -1.6786990000  0.0000250000
H  -2.6123510000  2.8996600000  0.0000040000
H  -4.5600550000  1.4021030000  0.0000100000