47
charge=0, multiplicity=1, basis=def2-QZVPP, mem_total=120000, AUX_BASIS_CORR=rimp2-def2-QZVPPD, SCF_ALGORITHM=GDM, xc_grid=000099000590, num_basis=1923, num_pairs=1169040, num_threads=32
C  -3.3635890000  0.9260320000  -0.0957980000
C  -1.9307010000  1.2251510000  -0.5427580000
C  -0.9504670000  0.2153790000  0.0779300000
C  -1.3915430000  -1.2342600000  -0.2155040000
C  -3.8100880000  -0.5073160000  -0.3715850000
H  -1.8812820000  1.0962700000  -1.6329290000
H  -3.4430990000  1.1196220000  0.9827950000
H  -4.0471760000  1.6283090000  -0.5835190000
H  -3.7888200000  -0.6632900000  -1.4584970000
H  -2.8599010000  -1.3849260000  1.3485010000
H  -3.1077070000  -2.5143780000  0.0246540000
C  -2.8199780000  -1.4835300000  0.2555800000
C  0.5144060000  0.4763990000  -0.3528210000
C  -0.4048330000  -2.1900760000  0.3866590000
C  1.3359640000  -0.8344030000  -0.6451110000
C  0.8940050000  -1.9838110000  0.2150490000
C  -5.2320430000  -0.7548540000  0.1177390000
H  -5.5566540000  -1.7747450000  -0.1029590000
H  -5.9391930000  -0.0678920000  -0.3534180000
H  -5.2993680000  -0.6105830000  1.2003210000
C  1.2634660000  1.3424590000  0.6508930000
O  1.7873930000  2.3763270000  0.3051930000
C  1.3318740000  0.8940820000  2.0915930000
C  2.8269930000  -0.5479180000  -0.6908100000
C  3.6492320000  -0.9269600000  0.2857110000
H  3.2279030000  -1.4759840000  1.1224090000
C  5.1183900000  -0.6650750000  0.4062310000
H  5.3231450000  -0.0467740000  1.2856590000
H  5.5365850000  -0.1532220000  -0.4584220000
H  5.6679940000  -1.6006510000  0.5444090000
C  3.2537310000  0.2513820000  -1.8910890000
H  4.3344950000  0.3002370000  -2.0031690000
H  2.8813950000  1.2772010000  -1.8189570000
H  2.8404470000  -0.1842430000  -2.8054970000
C  -1.5756620000  2.6737470000  -0.2163240000
H  -1.5761820000  2.8364090000  0.8663000000
H  -0.5948230000  2.9633450000  -0.5925650000
H  -2.3140420000  3.3527420000  -0.6491080000
H  1.1889090000  -0.1794090000  2.2045290000
H  0.5409620000  1.4018880000  2.6505790000
H  2.2883700000  1.2021860000  2.5104880000
H  1.6299910000  -2.6675820000  0.6184220000
H  -0.7718140000  -3.0392940000  0.9547640000
H  1.0446090000  -1.1022830000  -1.6695220000
H  0.5115030000  1.0545280000  -1.2779720000
H  -1.0190050000  0.3276940000  1.1666240000
H  -1.3713210000  -1.3643560000  -1.3089640000