31
charge=0, multiplicity=2, basis=def2-QZVPP, AUX_BASIS_CORR=rimp2-def2-QZVPPD, SCF_ALGORITHM=GDM, xc_grid=000099000590, mem_total=30000, num_basis=1307, num_pairs=574928, num_threads=8
C  -1.0706120000  -2.2810000000  -0.0963060000
C  -1.9809390000  -1.2097670000  0.3366590000
C  -3.4093440000  1.1099400000  -0.0450010000
C  -2.4496470000  2.1287910000  0.5487080000
O  -2.2730500000  -1.0010140000  1.4895850000
Cl  0.8093130000  -1.3489990000  -0.0494370000
H  -1.1349030000  -2.5902230000  -1.1320660000
H  -0.9481330000  -3.0739110000  0.6304550000
H  -4.1089980000  1.5737620000  -0.7410520000
H  -3.9816050000  0.6085230000  0.7344250000
H  -3.0061640000  2.8905550000  1.1006850000
H  -1.8688230000  2.6260130000  -0.2300070000
H  -1.7611800000  1.6455480000  1.2421740000
C  2.6703580000  -0.1204710000  0.0207460000
C  2.4128290000  0.7918040000  1.1958250000
C  2.5316470000  0.7005090000  -1.2306930000
C  3.7290320000  -1.1676930000  0.1182180000
C  1.7510940000  2.0632930000  0.6154950000
C  1.4902170000  1.7624630000  -0.8726890000
H  3.3698790000  1.0233790000  1.6788880000
H  1.7996280000  0.2994060000  1.9517490000
H  2.2803800000  0.1032220000  -2.1080070000
H  3.5077360000  1.1714610000  -1.4262400000
H  3.7113400000  -1.8396270000  -0.7403940000
H  3.6244220000  -1.7597620000  1.0281890000
H  4.7128540000  -0.6798710000  0.1459880000
H  2.4293860000  2.9136590000  0.7149060000
H  0.8335550000  2.3246470000  1.1428510000
H  0.4913100000  1.3452840000  -1.0073120000
H  1.5654180000  2.6530160000  -1.4982130000
S  -2.5711150000  -0.1850750000  -1.0068150000