17
charge=-1, multiplicity=1, basis=def2-QZVPP, mem_total=7500, AUX_BASIS_CORR=rimp2-def2-QZVPPD, SCF_ALGORITHM=GDM, xc_grid=000099000590, num_basis=726, num_pairs=237333, num_threads=2
C  -1.4186350000  0.9613410000  -0.5526350000
C  -0.9278900000  -0.4775350000  -0.6919020000
C  0.4976750000  -0.6662990000  -0.1425470000
O  0.4673490000  -0.4602520000  1.2235460000
H  -1.0015030000  -0.7751040000  -1.7461090000
O  -1.7568900000  -1.3612410000  0.0573530000
O  -1.1885040000  1.4972600000  0.7303130000
C  1.5671930000  0.2450140000  -0.7652900000
H  0.7918790000  -1.7108060000  -0.3839250000
O  2.7063480000  0.1760870000  0.0756960000
H  1.2094920000  1.2819260000  -0.8183600000
H  1.8509860000  -0.0814510000  -1.7728870000
H  2.2724750000  -0.0084600000  0.9385790000
H  -0.5143560000  0.8889160000  1.1539840000
H  -0.9235970000  1.5786820000  -1.3210940000
H  -1.3260080000  -1.3442600000  0.9323910000
H  -2.4958440000  0.9805970000  -0.7636020000