21
charge=0, multiplicity=2, basis=def2-QZVPP, AUX_BASIS_CORR=rimp2-def2-QZVPPD, SCF_ALGORITHM=GDM, xc_grid=000099000590, mem_total=15000, num_basis=846, num_pairs=319536, num_threads=4
C  -0.1232640000  -1.1160120000  0.4354550000
C  0.9705350000  -1.2528880000  -0.3772380000
C  2.1550780000  -0.4301130000  0.0216980000
C  1.6124540000  1.0355920000  -0.0814280000
H  3.0367430000  -0.5796040000  -0.6039850000
H  2.4420580000  -0.6322860000  1.0584090000
C  0.2079020000  1.0722650000  0.4633580000
H  1.6112100000  1.3314160000  -1.1350540000
H  2.2724900000  1.7303900000  0.4457130000
C  -1.0173980000  1.2863440000  -0.3748520000
H  0.1012260000  1.3147260000  1.5180910000
H  0.8219800000  -1.4521590000  -1.4359890000
H  0.0248670000  -1.1014400000  1.5125190000
C  -1.5390720000  -1.1499890000  -0.0590020000
C  -2.1036430000  0.2838910000  0.0425130000
H  -2.1666290000  -1.8421780000  0.5084370000
H  -1.5511830000  -1.4746940000  -1.1035090000
H  -2.3852930000  0.4850380000  1.0815650000
H  -3.0097530000  0.3980480000  -0.5591290000
H  -0.7696140000  1.1393060000  -1.4313510000
H  -1.4036610000  2.3088960000  -0.2787340000