11
charge=0, multiplicity=2, basis=def2-QZVPP, AUX_BASIS_CORR=rimp2-def2-QZVPPD, SCF_ALGORITHM=GDM, xc_grid=000099000590, mem_total=3750, num_basis=519, num_pairs=126930, num_threads=1
C  0.7214790000  1.2370920000  -0.0000050000
C  -0.7954970000  1.2123220000  -0.0000230000
C  1.1389480000  -0.2415240000  -0.0000020000
N  0.0046310000  -1.0822510000  0.0000160000
C  -1.0398250000  -0.3327030000  0.0000070000
O  -2.2565280000  -0.6579200000  0.0000180000
O  2.2641060000  -0.6413430000  -0.0000050000
H  1.1404580000  1.7192090000  0.8826900000
H  1.1404810000  1.7192150000  -0.8826850000
H  -1.2622870000  1.6401330000  -0.8857540000
H  -1.2623140000  1.6401820000  0.8856700000