35
charge=0, multiplicity=1, basis=def2-QZVPP, AUX_BASIS_CORR=rimp2-def2-QZVPPD, SCF_ALGORITHM=GDM, xc_grid=000099000590, mem_total=60000, num_basis=1590, num_pairs=806550, num_threads=16
C  2.0017520000  0.2160640000  -0.1592160000
C  2.1244790000  -1.1903250000  -0.1624500000
C  3.3908750000  -1.7499890000  -0.0497880000
C  4.5247550000  -0.9554770000  0.0509090000
C  4.4007770000  0.4256900000  0.0387990000
C  3.1471060000  1.0064480000  -0.0637820000
H  3.4898080000  -2.8298850000  -0.0501030000
H  5.5020070000  -1.4159430000  0.1332800000
H  5.2802070000  1.0538010000  0.1122540000
H  3.0426050000  2.0813670000  -0.0669340000
C  0.6691930000  0.7614270000  -0.2161520000
C  -0.5530490000  0.5843840000  -0.2091170000
C  -1.6999210000  -0.2807620000  -0.1669070000
C  -2.9495580000  0.0667780000  -0.6786630000
C  -1.4990890000  -1.5663190000  0.3759150000
C  -4.0035970000  -0.8313670000  -0.6354870000
H  -3.0743790000  1.0420870000  -1.1300340000
C  -2.5710980000  -2.4485970000  0.4149280000
C  -3.8180930000  -2.0888560000  -0.0786280000
H  -4.9680510000  -0.5513060000  -1.0414780000
H  -2.4233610000  -3.4373290000  0.8351240000
H  -4.6398930000  -2.7934720000  -0.0370820000
C  -0.1290370000  -1.9678260000  0.8481910000
H  -3.1297350000  2.2486200000  0.9228210000
C  -2.3396850000  2.9955210000  0.9270300000
N  -1.3923720000  2.6088630000  -0.1175560000
H  -1.8725570000  3.0120210000  1.9149520000
H  -2.7814310000  3.9706560000  0.7125440000
N  -0.2756400000  3.1662220000  -0.1009290000
N  0.8492660000  2.9712550000  -0.2259240000
H  0.2266590000  -1.2438720000  1.5845190000
H  -0.1934630000  -2.9294440000  1.3593230000
C  0.9090460000  -2.0648320000  -0.3137910000
H  0.4094790000  -1.8026200000  -1.2494350000
H  1.2341900000  -3.1008340000  -0.4196300000