14
charge=0, multiplicity=2, basis=def2-QZVPP, AUX_BASIS_CORR=rimp2-def2-QZVPPD, SCF_ALGORITHM=GDM, xc_grid=000099000590, mem_total=3750, num_basis=555, num_pairs=137911, num_threads=1
C  -2.4588290000  -0.1627470000  -0.1372400000
C  -1.1218870000  0.4827290000  -0.1467670000
C  0.0096910000  -0.4510750000  0.2995890000
C  1.3370480000  0.2390970000  0.3596530000
C  2.4047330000  -0.0989740000  -0.3486960000
H  -3.2793110000  0.2470350000  -0.7116340000
H  -2.6707940000  -0.9859490000  0.5344230000
H  -1.1280330000  1.3658560000  0.5134140000
H  -0.8982410000  0.8770950000  -1.1441170000
H  0.0670780000  -1.3079540000  -0.3770470000
H  -0.2381410000  -0.8464390000  1.2917970000
H  3.3381640000  0.4444760000  -0.2654200000
H  2.3833500000  -0.9371050000  -1.0379460000
H  1.4013930000  1.0888080000  1.0373000000