11
charge=0, multiplicity=1, basis=def2-QZVPP, AUX_BASIS_CORR=rimp2-def2-QZVPPD, SCF_ALGORITHM=GDM, xc_grid=000099000590, mem_total=3750, num_basis=465, num_pairs=99780, num_threads=1
C  -0.4611850000  0.1749450000  -0.0000140000
O  -0.2853210000  1.3639310000  0.0000490000
C  -1.7930430000  -0.5146470000  -0.0000410000
H  -1.8786240000  -1.1534760000  0.8799990000
H  -1.8783670000  -1.1539980000  -0.8797210000
H  -2.5860750000  0.2284030000  -0.0003530000
O  0.5464000000  -0.7139970000  -0.0000400000
C  1.8658690000  -0.1618840000  0.0000310000
H  2.5405970000  -1.0137070000  -0.0000470000
H  2.0220040000  0.4515030000  -0.8872140000
H  2.0219840000  0.4513230000  0.8874040000