26
charge=0, multiplicity=2, basis=def2-QZVPP, mem_total=15000, AUX_BASIS_CORR=rimp2-def2-QZVPPD, SCF_ALGORITHM=GDM, xc_grid=000099000590, num_basis=1063, num_pairs=437996, num_threads=4
C  -0.9041330000  -0.1780790000  -1.0517470000
C  -1.2720110000  -1.4855880000  -0.6776890000
C  -2.1692310000  -1.3820050000  0.3999690000
C  -2.4083330000  -0.0425980000  0.6158300000
N  -1.7134330000  0.6833310000  -0.3157090000
H  -2.6105570000  -2.1945290000  0.9552910000
C  -1.5540030000  2.1147050000  -0.3097830000
H  -1.5327750000  2.4959540000  -1.3315950000
H  -2.3930510000  2.5721970000  0.2125210000
H  -0.6210680000  2.4037670000  0.1881250000
H  -0.9012300000  -2.3905490000  -1.1310510000
H  -0.5582910000  0.1388580000  -2.0245600000
H  -3.0237950000  0.4492840000  1.3517600000
Si  1.4020020000  0.0164030000  0.0241490000
C  2.2150920000  -1.5640210000  -0.6056870000
H  3.1809410000  -1.7218180000  -0.1147300000
H  1.5913010000  -2.4363260000  -0.4018870000
H  2.3968050000  -1.5241510000  -1.6827790000
C  2.6175680000  1.4482650000  -0.2374110000
H  3.5646910000  1.2485420000  0.2774570000
H  2.8431030000  1.5943500000  -1.2964830000
H  2.2223660000  2.3895590000  0.1513240000
C  1.0312760000  -0.1545630000  1.8629350000
H  0.6509340000  0.7782270000  2.2854950000
H  0.2818430000  -0.9280540000  2.0381580000
H  1.9374240000  -0.4249610000  2.4163300000