33
charge=0, multiplicity=2, basis=def2-QZVPP, AUX_BASIS_CORR=rimp2-def2-QZVPPD, SCF_ALGORITHM=GDM, xc_grid=000099000590, mem_total=60000, num_basis=1584, num_pairs=882118, num_threads=16
C  0.6832030000  1.7555740000  1.1888520000
C  -0.6723290000  2.0001160000  1.1555870000
C  -1.3655890000  2.0442880000  -0.0683340000
C  -0.6335780000  1.8692650000  -1.2563510000
C  0.7256980000  1.6315990000  -1.2238210000
C  1.3892260000  1.5568540000  0.0012350000
H  1.2160400000  1.6957250000  2.1289530000
H  1.2748110000  1.4741920000  -2.1417450000
C  -0.1686150000  -1.5980330000  0.7340470000
C  -0.1835860000  -1.6554280000  -0.6516730000
N  0.8287120000  -2.0242890000  -1.4091550000
C  1.9400720000  -2.3548670000  -0.7465650000
C  2.0638580000  -2.3208580000  0.6410990000
C  0.9808530000  -1.9321700000  1.4190310000
C  -1.4707460000  -1.0732860000  1.2202750000
C  -1.5140900000  -1.1645570000  -1.1456840000
H  2.7834840000  -2.6565450000  -1.3581990000
H  3.0078710000  -2.5851390000  1.0989310000
H  1.0343230000  -1.8765460000  2.4988250000
O  -1.9302770000  -1.0210640000  -2.2533000000
O  -1.8407940000  -0.8524290000  2.3362020000
N  -2.2162320000  -0.8453310000  0.0433540000
O  -3.4133040000  -0.2954820000  0.0433100000
H  -1.1541620000  1.8869730000  -2.2059950000
H  -1.2227440000  2.1239980000  2.0801660000
C  -2.8086890000  2.1708700000  -0.0975710000
H  -3.2783030000  2.5969540000  0.7851700000
H  -3.2517330000  2.4851490000  -1.0388790000
H  -3.2327730000  0.9087340000  -0.0249040000
C  2.8302140000  1.2290380000  0.0928050000
O  3.4247670000  1.0273180000  1.1209900000
O  3.4343450000  1.1594220000  -1.1085950000
H  4.3625200000  0.9412820000  -0.9481770000