52
charge=0, multiplicity=1, basis=def2-QZVPP, mem_total=120000, AUX_BASIS_CORR=rimp2-def2-QZVPPD, SCF_ALGORITHM=GDM, xc_grid=000099000590, num_basis=2181, num_pairs=1374448, num_threads=32
C  0.0262080000  -2.3609550000  -0.4164240000
H  -0.0878200000  -3.0318020000  -1.2758270000
H  0.1459350000  -3.0156240000  0.4719460000
C  -1.2291100000  -1.5613830000  -0.2629850000
C  0.0857500000  0.4800650000  0.1143980000
H  0.3562610000  1.1114130000  -0.7355130000
H  -0.0157030000  1.1387850000  0.9764330000
C  1.2403750000  -0.4861840000  0.3823380000
H  1.0835660000  -0.9338180000  1.3842310000
N  1.1966330000  -1.5381160000  -0.6227380000
C  -2.5350620000  0.4893330000  -0.0543730000
C  -2.5182410000  -2.3301460000  -0.2904250000
C  -3.6097630000  -0.2144540000  0.3200220000
C  -3.5430660000  -1.6860780000  0.6402460000
C  -1.2261450000  -0.2335540000  -0.1030240000
C  -3.2268500000  -1.9286200000  2.1204130000
H  -3.2201270000  -2.9980600000  2.3486090000
H  -2.2499970000  -1.5156400000  2.3799530000
H  -3.9728200000  -1.4512010000  2.7591570000
C  2.5734500000  0.2365960000  0.4152280000
C  2.4135990000  -2.3216380000  -0.6907720000
H  2.2490540000  -3.1526680000  -1.3803040000
H  2.6686920000  -2.7582500000  0.2927320000
C  3.5477420000  -1.4432810000  -1.1816160000
H  3.3531040000  -1.1654360000  -2.2219690000
C  3.6637080000  -0.2040030000  -0.3343670000
H  4.4914140000  -1.9944380000  -1.1623140000
C  4.8654910000  0.4992720000  -0.2729070000
H  5.7091910000  0.1480610000  -0.8577830000
C  2.7246110000  1.3574940000  1.2320190000
H  1.8927040000  1.6938890000  1.8394130000
C  5.0002900000  1.6222150000  0.5240450000
H  5.9427840000  2.1551730000  0.5598450000
C  3.9218120000  2.0496670000  1.2883070000
H  4.0150370000  2.9182520000  1.9289920000
C  -2.6576070000  1.9458820000  -0.5293140000
C  -1.8771130000  2.9379970000  0.3544840000
H  -0.8005130000  2.8693790000  0.2209650000
H  -2.1061670000  2.7832020000  1.4116020000
H  -2.1671370000  3.9594950000  0.0961860000
C  -4.1177440000  2.4165310000  -0.5298580000
H  -4.5387680000  2.4374960000  0.4777850000
H  -4.7492380000  1.7836330000  -1.1555110000
H  -4.1661630000  3.4321110000  -0.9282820000
C  -2.1502190000  2.0310260000  -1.9794910000
H  -1.1147180000  1.7064330000  -2.0762780000
H  -2.2146540000  3.0605220000  -2.3417650000
H  -2.7578970000  1.4015150000  -2.6333830000
H  -2.3403370000  -3.3718360000  -0.0038360000
H  -2.9113200000  -2.3486710000  -1.3156020000
H  -4.5226960000  -2.1253160000  0.4305020000
H  -4.5807890000  0.2555140000  0.3935080000