19
charge=0, multiplicity=1, basis=def2-QZVPP, AUX_BASIS_CORR=rimp2-def2-QZVPPD, SCF_ALGORITHM=GDM, xc_grid=000099000590, mem_total=15000, num_basis=921, num_pairs=340697, num_threads=4
C  -1.6285690000  1.8068470000  -0.0000170000
C  -2.4544270000  0.7629040000  -0.0000200000
C  -1.9561770000  -0.6335220000  -0.0000100000
O  -2.7356800000  -1.5613180000  -0.0000160000
C  -0.4796870000  -0.8341740000  -0.0000010000
C  0.3810330000  0.2813080000  0.0000010000
C  -0.1612540000  1.6390630000  -0.0000080000
O  0.5628100000  2.6323290000  0.0000000000
C  1.7705100000  0.0781720000  0.0000110000
C  2.2735910000  -1.2282290000  0.0000200000
C  1.4121870000  -2.3022950000  0.0000180000
C  0.0280090000  -2.1152450000  0.0000070000
O  2.6429230000  1.0863120000  0.0000120000
H  3.3478270000  -1.3604460000  0.0000280000
H  1.8160450000  -3.3074360000  0.0000240000
H  -0.6566980000  -2.9524550000  0.0000060000
H  2.1337730000  1.9269670000  0.0000030000
H  -1.9804820000  2.8315690000  -0.0000220000
H  -3.5321880000  0.8742390000  -0.0000280000