36
charge=1, multiplicity=1, basis=def2-QZVPP, AUX_BASIS_CORR=rimp2-def2-QZVPPD, SCF_ALGORITHM=GDM, xc_grid=000099000590, mem_total=60000, num_basis=1485, num_pairs=778362, num_threads=16
C  1.2038030000  1.3506110000  0.0411340000
C  1.2038370000  -1.3505970000  0.0411410000
C  -0.3218520000  -1.2485490000  0.1116590000
C  -0.8480640000  -0.0000180000  0.8188950000
C  -0.3218840000  1.2485270000  0.1116610000
H  -0.7355840000  -1.2682990000  -0.8969380000
H  -0.6725820000  -2.1455830000  0.6252920000
H  -0.5172480000  -0.0000180000  1.8595090000
H  -0.7356210000  1.2682680000  -0.8969350000
H  -0.6726300000  2.1455540000  0.6252960000
N  1.7704390000  0.0000130000  -0.4009050000
O  2.7237500000  0.0000230000  -1.0929160000
C  1.6368090000  2.3839500000  -0.9893860000
H  1.1503230000  3.3245690000  -0.7308370000
H  2.7134510000  2.5441520000  -0.9894660000
H  1.3164050000  2.1052860000  -1.9939680000
C  1.8518110000  1.6569560000  1.4033090000
H  2.9375840000  1.5648810000  1.3586250000
H  1.6138220000  2.6958440000  1.6328790000
H  1.4708430000  1.0400010000  2.2123760000
C  1.6368720000  -2.3839300000  -0.9893730000
H  2.7135180000  -2.5441040000  -0.9894490000
H  1.1504090000  -3.3245590000  -0.7308200000
H  1.3164630000  -2.1052800000  -1.9939570000
C  1.8518480000  -1.6569180000  1.4033190000
H  1.6138830000  -2.6958110000  1.6328940000
H  2.9376190000  -1.5648180000  1.3586370000
H  1.4708630000  -1.0399680000  2.2123810000
N  -2.3011200000  -0.0000480000  0.8722240000
C  -3.0929680000  -0.0000360000  -0.2453630000
C  -4.5777510000  0.0000340000  -0.0062900000
H  -5.0062110000  0.8786650000  -0.4892910000
H  -5.0063800000  -0.8782160000  -0.4898260000
H  -4.8521870000  -0.0002520000  1.0483400000
O  -2.6090930000  -0.0000610000  -1.3626090000
H  -2.7439920000  0.0000580000  1.7759910000