14
charge=0, multiplicity=2, basis=def2-QZVPP, AUX_BASIS_CORR=rimp2-def2-QZVPPD, SCF_ALGORITHM=GDM, xc_grid=000099000590, mem_total=3750, num_basis=582, num_pairs=156259, num_threads=1
C  -1.6341090000  -0.1342870000  -0.1497040000
C  2.0448980000  -0.7356800000  -0.5697040000
C  1.3084060000  -0.3023280000  0.6462500000
C  0.5046720000  0.9855290000  0.4518690000
C  -0.6328960000  0.8421180000  -0.5684340000
N  -2.4097550000  -0.9044100000  0.1988100000
H  2.0197470000  -0.1325980000  1.4691790000
H  0.6478740000  -1.1023110000  0.9943910000
H  1.1675320000  1.7824120000  0.1033860000
H  0.0899720000  1.3107650000  1.4085040000
H  -0.2361250000  0.5251950000  -1.5360700000
H  -1.1355810000  1.7995560000  -0.7206730000
H  2.2460900000  -1.7809550000  -0.7612750000
H  2.5229450000  -0.0033080000  -1.2107690000