39
charge=1, multiplicity=1, basis=def2-QZVPP, mem_total=60000, AUX_BASIS_CORR=rimp2-def2-QZVPPD, SCF_ALGORITHM=GDM, xc_grid=000099000590, num_basis=1656, num_pairs=924531, num_threads=16
C  -1.7630400000  -2.5538780000  -0.5404020000
C  -1.0924160000  -1.5785430000  0.4414630000
C  -3.0550480000  -0.6166130000  0.0781030000
C  -3.1367890000  -1.8729290000  -0.8052750000
H  -1.1663470000  -2.6879430000  -1.4411360000
H  -1.8788550000  -3.5288750000  -0.0667790000
H  -3.2928820000  -1.6210090000  -1.8550070000
H  -3.9716150000  -2.5010340000  -0.4942920000
C  -2.2730250000  -1.1108630000  1.2968290000
H  -2.0244280000  -0.3249090000  2.0090380000
H  -2.7673580000  -1.9342550000  1.8084880000
H  -0.1971180000  -1.9376640000  0.9315280000
H  -3.9849300000  -0.0815120000  0.2511300000
N  -2.0418600000  0.3068680000  -0.4950160000
N  -0.8275620000  -0.3463850000  -0.3383380000
C  0.2736250000  0.4058250000  -0.4634380000
C  1.6247100000  -0.1314700000  -0.2082980000
C  2.0077850000  -0.6578110000  1.0265620000
C  2.5585370000  -0.0664000000  -1.2412370000
C  3.2929310000  -1.1372750000  1.2109540000
H  1.3152050000  -0.6666840000  1.8593670000
C  3.8434210000  -0.5541190000  -1.0565170000
H  2.2766050000  0.3585600000  -2.1976820000
C  4.2102980000  -1.0925300000  0.1676470000
H  3.5854130000  -1.5370220000  2.1735750000
H  4.5587860000  -0.5072450000  -1.8675510000
H  5.2154170000  -1.4667910000  0.3156460000
H  0.2178810000  1.0973430000  -1.3001430000
H  -2.2103050000  0.5716610000  -1.4630000000
C  -1.3625340000  2.2910590000  0.6232690000
H  -2.2566010000  2.1294850000  1.2076570000
C  -0.0319050000  1.9740280000  0.8447010000
H  0.4168140000  1.5300970000  1.7241960000
C  0.4505920000  3.1640560000  0.0102950000
H  0.8286040000  3.9841340000  0.6184520000
H  1.1671210000  2.9625860000  -0.7890530000
C  -1.0450870000  3.3652740000  -0.3857750000
H  -1.4678750000  4.3450680000  -0.1593820000
H  -1.2898920000  3.1257710000  -1.4248620000