12
charge=0, multiplicity=1, basis=def2-QZVPP, AUX_BASIS_CORR=rimp2-def2-QZVPPD, SCF_ALGORITHM=GDM, xc_grid=000099000590, mem_total=3750, num_basis=522, num_pairs=129196, num_threads=1
C  0.6635750000  1.1849830000  -0.0600400000
H  1.2331250000  -2.0905250000  -0.2075270000
H  -1.2331430000  -2.0905240000  -0.2074290000
H  2.3178850000  0.0000020000  -0.2295250000
C  -0.6635810000  1.1849820000  -0.0599860000
C  0.6635750000  -1.1849820000  -0.0600610000
N  -1.4024170000  -0.0000020000  0.1950010000
C  -0.6635810000  -1.1849810000  -0.0600070000
N  1.4024350000  -0.0000020000  0.1948910000
H  1.2331250000  2.0905280000  -0.2074900000
H  -2.3179100000  0.0000020000  -0.2293200000
H  -1.2331430000  2.0905280000  -0.2073920000