37
charge=0, multiplicity=1, basis=def2-QZVPP, mem_total=60000, AUX_BASIS_CORR=rimp2-def2-QZVPPD, SCF_ALGORITHM=GDM, xc_grid=000099000590, num_basis=1542, num_pairs=849051, num_threads=16
C  -1.4233750000  0.1763970000  -1.2359800000
H  -1.2314050000  0.7210400000  -2.1660810000
B  -0.2755780000  0.3255820000  -0.1890590000
C  -1.3706050000  -1.3410770000  -1.5783460000
H  -0.4223620000  -1.5397450000  -2.0917460000
H  -2.1596530000  -1.5762610000  -2.3005490000
C  -2.7709000000  0.6601530000  -0.6654930000
H  -2.7319450000  1.7542660000  -0.6264330000
C  0.1664600000  3.3152670000  -0.5125360000
H  -0.2217740000  3.2091300000  -1.5198830000
H  -0.0206910000  4.2554130000  -0.0090880000
C  0.8584460000  2.3477610000  0.0778940000
C  1.1199600000  0.9976870000  -0.5351000000
H  1.2265910000  2.4720160000  1.0909010000
H  -3.5821840000  0.4097500000  -1.3585960000
C  2.2631970000  0.2824400000  0.1062900000
O  2.7065180000  0.4872020000  1.2067980000
O  2.7234160000  -0.6980990000  -0.6932710000
C  3.7772190000  -1.4983300000  -0.1516890000
H  4.0199800000  -2.2250590000  -0.9224660000
H  4.6449070000  -0.8811520000  0.0801630000
H  3.4458830000  -1.9999350000  0.7577520000
C  -3.1211220000  0.1349710000  0.7341830000
H  -3.9360460000  0.7408310000  1.1412660000
H  -3.5234270000  -0.8750460000  0.6603590000
C  -0.6071860000  -0.3634180000  1.1720000000
H  0.1601120000  -0.2043200000  1.9344580000
C  -1.9499870000  0.1549230000  1.7256160000
H  -1.7905090000  1.1862910000  2.0591150000
H  -2.2261860000  -0.4123540000  2.6215510000
C  -0.5957810000  -1.8794850000  0.8208360000
H  -0.8831840000  -2.4574740000  1.7055810000
H  0.4385000000  -2.1658680000  0.5976220000
C  -1.4813240000  -2.2818180000  -0.3690270000
H  -1.2067140000  -3.2925040000  -0.6852120000
H  -2.5204580000  -2.3491490000  -0.0503470000
H  1.2689680000  1.0565720000  -1.6131800000