41
charge=0, multiplicity=2, basis=def2-QZVPP, AUX_BASIS_CORR=rimp2-def2-QZVPPD, SCF_ALGORITHM=GDM, xc_grid=000099000590, mem_total=60000, num_basis=1756, num_pairs=852901, num_threads=16
O  -4.4554740000  -0.7531290000  -1.0179230000
C  -3.4959040000  -0.8012220000  -0.3516720000
C  -3.1405560000  -1.6953600000  0.8154020000
C  -1.7993620000  -2.4004530000  0.5952550000
Cl  -1.7408320000  0.6338660000  -0.7892080000
C  0.0545130000  1.7302230000  -1.1165580000
H  -3.9433730000  -2.4423740000  0.8595360000
C  -3.1442940000  -0.8559180000  2.0941420000
H  -0.9992280000  -1.6588320000  0.6192900000
C  -1.7308650000  -3.1957830000  -0.7020650000
H  -1.6445860000  -3.0645640000  1.4509060000
C  1.1206910000  0.8533300000  -0.6075360000
C  -0.2122540000  3.0435700000  -0.5274070000
C  1.2422870000  0.5464590000  0.7551230000
C  2.0066890000  0.2462190000  -1.4888300000
C  0.5023910000  3.6499020000  0.4220170000
C  2.2193300000  -0.3109490000  1.2084900000
C  3.1126030000  -0.8970560000  0.3089020000
C  3.0035880000  -0.6170660000  -1.0472410000
H  1.9220030000  0.4494900000  -2.5504100000
H  2.3109250000  -0.5560880000  2.2590460000
O  4.0401240000  -1.7271390000  0.8508260000
H  3.6755740000  -1.0620780000  -1.7670910000
H  0.5371820000  0.9710950000  1.4583710000
H  -2.5341850000  -3.9351970000  -0.7609430000
H  -0.7805300000  -3.7264210000  -0.7806580000
H  -1.8126910000  -2.5387650000  -1.5710620000
C  4.9619750000  -2.3573010000  -0.0146550000
H  5.5738290000  -1.6229150000  -0.5472550000
H  5.6019940000  -2.9667940000  0.6190680000
H  4.4523100000  -2.9997130000  -0.7392100000
H  -4.1150110000  -0.3884740000  2.2667890000
H  -2.3887320000  -0.0716460000  2.0371860000
H  -2.9175760000  -1.4969910000  2.9479550000
C  0.1898550000  5.0034240000  0.9724930000
H  1.0250520000  5.6928210000  0.8176290000
H  0.0179580000  4.9558790000  2.0522450000
H  -0.6987750000  5.4309760000  0.5053890000
H  1.3821810000  3.1557810000  0.8224320000
H  -1.0742910000  3.5602220000  -0.9414270000
H  -0.0171990000  1.7288880000  -2.1996350000