11
charge=0, multiplicity=2, basis=def2-QZVPP, AUX_BASIS_CORR=rimp2-def2-QZVPPD, SCF_ALGORITHM=GDM, xc_grid=000099000590, mem_total=3750, num_basis=519, num_pairs=126930, num_threads=1
C  -0.7954960000  1.2123220000  -0.0000120000
C  0.7214760000  1.2370900000  0.0000130000
C  -1.0398220000  -0.3326960000  0.0000020000
N  0.0046270000  -1.0822500000  0.0000070000
C  1.1389470000  -0.2415270000  0.0000000000
O  2.2641030000  -0.6413430000  -0.0000100000
O  -2.2565220000  -0.6579250000  0.0000010000
H  -1.2622850000  1.6401490000  -0.8857370000
H  -1.2623190000  1.6401810000  0.8856790000
H  1.1404510000  1.7191980000  0.8827160000
H  1.1404850000  1.7192290000  -0.8826560000