14
charge=0, multiplicity=2, basis=def2-QZVPP, AUX_BASIS_CORR=rimp2-def2-QZVPPD, SCF_ALGORITHM=GDM, xc_grid=000099000590, mem_total=3750, num_basis=636, num_pairs=178121, num_threads=1
C  2.8333710000  0.0000000000  0.0001140000
C  1.4319370000  0.0000000000  0.0000580000
C  0.6934780000  -1.2118480000  0.0000240000
C  0.6934780000  1.2118480000  0.0000320000
H  1.2308220000  -2.1526110000  0.0000430000
C  -0.6846990000  -1.2140460000  -0.0000310000
C  -0.6846990000  1.2140460000  -0.0000240000
C  -1.3533380000  0.0000000000  -0.0000540000
H  1.2308220000  2.1526110000  0.0000560000
H  -1.2526270000  -2.1353460000  -0.0000570000
H  -1.2526270000  2.1353470000  -0.0000440000
F  -2.7016110000  0.0000000000  -0.0001090000
H  3.3904670000  0.9272990000  0.0001390000
H  3.3904670000  -0.9272990000  0.0001340000