19
charge=0, multiplicity=1, basis=def2-QZVPP, AUX_BASIS_CORR=rimp2-def2-QZVPPD, SCF_ALGORITHM=GDM, xc_grid=000099000590, mem_total=15000, num_basis=921, num_pairs=340697, num_threads=4
C  -2.4544250000  0.7629070000  -0.0000550000
C  -1.6285650000  1.8068490000  -0.0000420000
C  -0.1612520000  1.6390620000  -0.0000090000
O  0.5628120000  2.6323300000  0.0000000000
C  0.3810340000  0.2813070000  0.0000070000
C  -0.4796870000  -0.8341740000  -0.0000060000
C  -1.9561760000  -0.6335190000  -0.0000370000
O  -2.7356770000  -1.5613160000  -0.0000490000
C  0.0280060000  -2.1152470000  0.0000110000
C  1.4121820000  -2.3022980000  0.0000410000
C  2.2735870000  -1.2282320000  0.0000530000
C  1.7705110000  0.0781700000  0.0000360000
O  2.6429190000  1.0863130000  0.0000460000
H  -0.6567020000  -2.9524560000  0.0000010000
H  1.8160390000  -3.3074390000  0.0000540000
H  3.3478220000  -1.3604550000  0.0000750000
H  2.1337680000  1.9269680000  0.0000280000
H  -1.9804750000  2.8315720000  -0.0000550000
H  -3.5321840000  0.8742420000  -0.0000780000