16
charge=0, multiplicity=1, basis=def2-QZVPP, AUX_BASIS_CORR=rimp2-def2-QZVPPD, SCF_ALGORITHM=GDM, xc_grid=000099000590, mem_total=3750, num_basis=642, num_pairs=171913, num_threads=1
C  1.7222650000  0.7074650000  -0.0000270000
C  0.3892760000  0.6157910000  -0.0000250000
C  -0.3892760000  -0.6157910000  0.0000080000
C  -1.7222650000  -0.7074650000  0.0000220000
C  2.7163640000  -0.4105470000  0.0000000000
H  2.2524080000  -1.3956350000  0.0001340000
H  3.3663130000  -0.3454100000  -0.8776390000
H  3.3664550000  -0.3452390000  0.8775200000
C  -2.7163640000  0.4105470000  0.0000150000
H  -2.2524090000  1.3956350000  -0.0002340000
H  -3.3665430000  0.3451770000  -0.8774340000
H  -3.3662250000  0.3454730000  0.8777250000
H  2.1518860000  1.7056950000  -0.0000560000
H  -0.1679750000  1.5460020000  -0.0000460000
H  0.1679750000  -1.5460020000  0.0000210000
H  -2.1518860000  -1.7056940000  0.0000530000