29
charge=0, multiplicity=1, basis=def2-QZVPP, AUX_BASIS_CORR=rimp2-def2-QZVPPD, SCF_ALGORITHM=GDM, xc_grid=000099000590, mem_total=30000, num_basis=1221, num_pairs=612777, num_threads=8
C  1.2974580000  0.8562020000  -0.1388230000
C  -0.9627220000  -0.0568310000  -0.8784620000
C  -1.2438500000  1.4782660000  -0.9225590000
C  -0.6388100000  2.2326180000  0.2326310000
C  0.6079570000  1.9547810000  0.6055370000
C  2.6400580000  0.2952220000  0.3265500000
C  2.6946470000  -1.1262310000  -0.3006340000
C  1.3129390000  -1.3580190000  -0.9580450000
H  3.4757570000  0.9226330000  0.0134160000
H  2.8862050000  -1.8746820000  0.4701770000
H  1.3471600000  -1.0891210000  -2.0176960000
H  2.6778830000  0.2375300000  1.4169230000
H  3.4993370000  -1.2189670000  -1.0309650000
H  0.9835190000  -2.3973890000  -0.8970840000
C  0.0440290000  -0.9433010000  1.2087290000
H  0.5401690000  -0.3674470000  1.9894630000
H  0.4036750000  -1.9702790000  1.2965530000
C  -1.4763540000  -0.9037930000  1.3746390000
H  -1.9131220000  -1.7812060000  1.8505820000
C  0.3864340000  -0.3888250000  -0.2180180000
C  -2.0271150000  -0.7157210000  -0.0189930000
O  -3.1317160000  -1.0148960000  -0.3923760000
H  -1.7874660000  -0.0267300000  1.9521260000
H  -1.2210700000  3.0050210000  0.7223720000
H  1.0979710000  2.4810450000  1.4178480000
H  1.4290380000  1.1929760000  -1.1776650000
H  -1.0460300000  -0.4500400000  -1.8928620000
H  -0.8082050000  1.8627490000  -1.8516450000
H  -2.3191190000  1.6468570000  -0.9978600000