17
charge=0, multiplicity=2, basis=def2-QZVPP, AUX_BASIS_CORR=rimp2-def2-QZVPPD, SCF_ALGORITHM=GDM, xc_grid=000099000590, mem_total=7500, num_basis=793, num_pairs=257532, num_threads=2
S  3.4886340000  -0.0708940000  -0.0000070000
C  1.7701250000  -0.0169010000  -0.0000030000
C  1.0849240000  1.2169730000  0.0000040000
C  -0.2912930000  1.2531610000  0.0000060000
C  -1.0320540000  0.0671810000  0.0000020000
C  -0.3649230000  -1.1604610000  -0.0000040000
C  1.0144750000  -1.2062310000  -0.0000080000
H  1.6635290000  2.1315780000  0.0000070000
H  -0.8274940000  2.1932100000  0.0000100000
H  -0.9233330000  -2.0873250000  -0.0000070000
H  1.5366860000  -2.1540310000  -0.0000130000
C  -2.5285740000  0.1663920000  0.0000050000
O  -3.0638360000  1.2512530000  0.0000030000
C  -3.3410330000  -1.1035770000  0.0000090000
H  -3.1150780000  -1.7078740000  -0.8815300000
H  -4.3965900000  -0.8426080000  0.0000200000
H  -3.1150620000  -1.7078810000  0.8815390000