26
charge=1, multiplicity=1, basis=def2-QZVPP, AUX_BASIS_CORR=rimp2-def2-QZVPPD, SCF_ALGORITHM=GDM, xc_grid=000099000590, mem_total=30000, num_basis=1131, num_pairs=488414, num_threads=8
N  -0.7471960000  0.8963310000  1.0573080000
C  -1.9084130000  0.0522100000  1.1199360000
H  0.0255270000  0.7483620000  1.6903040000
C  -1.9526640000  -0.9845540000  0.0083850000
H  -1.9188640000  -0.4729330000  2.0760570000
H  -2.8118300000  0.6637190000  1.0714840000
O  -3.1255460000  -1.1889250000  -0.5770010000
N  -0.9491170000  -1.6935030000  -0.3367290000
H  -1.2309840000  -2.3172810000  -1.0940740000
C  -0.5708470000  1.6738550000  -0.0441940000
C  0.8349270000  2.2460240000  -0.2138450000
O  -1.4264850000  1.7849470000  -0.8964880000
N  1.6401340000  1.1595480000  -0.7758480000
H  1.2796090000  2.5731400000  0.7241950000
H  0.8048700000  3.0730150000  -0.9172470000
H  1.5790940000  1.0144350000  -1.7731090000
H  -3.7594740000  -0.4859900000  -0.3882630000
C  2.0279650000  0.1434360000  0.0042530000
C  2.4017090000  -1.1724620000  -0.6677740000
O  2.0098340000  0.1631940000  1.2258650000
N  1.6815890000  -2.1940460000  0.1429590000
H  3.4761540000  -1.3442300000  -0.6084390000
H  2.0709450000  -1.2461890000  -1.7020780000
H  0.6028980000  -2.0192580000  0.0452150000
H  1.9272340000  -2.0410130000  1.1267890000
H  1.9184770000  -3.1488790000  -0.1242400000