49
charge=0, multiplicity=2, basis=def2-QZVPP, mem_total=120000, AUX_BASIS_CORR=rimp2-def2-QZVPPD, SCF_ALGORITHM=GDM, xc_grid=000099000590, num_basis=2010, num_pairs=1056254, num_threads=32
C  2.6155160000  -0.1628950000  -0.3795280000
C  3.6688010000  -1.1992220000  -0.0003050000
C  5.0823560000  -0.6685050000  -0.2281060000
H  3.4986870000  -2.1171140000  -0.5687830000
H  3.5182660000  -1.4639270000  1.0511970000
C  5.2521070000  0.7296860000  0.3307770000
H  5.2819410000  -0.6489190000  -1.3035230000
H  5.8128230000  -1.3575690000  0.2167020000
C  5.2631220000  0.8204110000  1.8383310000
C  6.3040260000  1.5676680000  -0.3502410000
H  4.0506530000  1.1926760000  -0.0450590000
N  2.8404290000  1.0762250000  -0.3800380000
C  1.2413710000  -0.6968420000  -0.7442260000
H  1.3953560000  -1.4082010000  -1.5690720000
C  0.2808170000  0.3912840000  -1.2161040000
C  0.6227860000  -1.4774220000  0.4256530000
H  6.1584080000  1.5905900000  -1.4326040000
H  6.2925840000  2.5965010000  0.0163620000
H  7.3083760000  1.1644820000  -0.1606150000
H  5.2181420000  1.8596080000  2.1709840000
H  4.4203350000  0.2925390000  2.2896500000
H  6.1843200000  0.3836030000  2.2463530000
H  1.2625950000  -2.3124830000  0.7204870000
C  -0.7553710000  -2.0160020000  0.0557690000
H  0.5290030000  -0.8128680000  1.2905320000
H  0.6924800000  0.9028240000  -2.0882950000
H  0.1744860000  1.1444180000  -0.4317540000
C  -1.0872150000  -0.1915690000  -1.5531280000
H  -1.7923900000  0.5912230000  -1.8112710000
H  -1.0047160000  -0.8666010000  -2.4155000000
N  -1.6133480000  -0.9487730000  -0.4261970000
H  -1.2421490000  -2.4795990000  0.9097940000
H  -0.6556360000  -2.7731800000  -0.7331640000
C  -2.7806330000  -0.6845820000  0.2193960000
O  -3.1807950000  -1.3071810000  1.1826210000
O  -3.4319660000  0.3493060000  -0.3456870000
C  -4.7041910000  0.8272340000  0.1923630000
C  -4.5169170000  1.3268280000  1.6192560000
C  -5.7600200000  -0.2665810000  0.0957400000
H  -6.7330130000  0.1442890000  0.3738150000
H  -5.5257300000  -1.0977700000  0.7567690000
H  -5.8273980000  -0.6352560000  -0.9300320000
H  -4.2751660000  0.5084070000  2.2934450000
H  -5.4382200000  1.8050280000  1.9588140000
H  -3.7157170000  2.0680110000  1.6566920000
C  -5.0419630000  1.9820290000  -0.7392550000
H  -5.9889060000  2.4369000000  -0.4435250000
H  -5.1318330000  1.6292770000  -1.7679830000
H  -4.2626060000  2.7448370000  -0.7005990000