7
charge=0, multiplicity=1, basis=def2-QZVPP, AUX_BASIS_CORR=rimp2-def2-QZVPPD, SCF_ALGORITHM=GDM, xc_grid=000099000590, mem_total=3750, num_basis=318, num_pairs=49266, num_threads=1
N  -0.3896740000  0.6351770000  -0.0000040000
N  0.7134020000  0.1038240000  0.0000070000
N  1.7737610000  -0.2775470000  -0.0000030000
C  -1.5305940000  -0.2860880000  0.0000000000
H  -1.5351030000  -0.9191650000  0.8919600000
H  -2.4288840000  0.3250020000  -0.0002230000
H  -1.5348750000  -0.9194860000  -0.8917330000