7
charge=-1, multiplicity=1, basis=def2-QZVPP, mem_total=3750, AUX_BASIS_CORR=rimp2-def2-QZVPPD, SCF_ALGORITHM=GDM, xc_grid=000099000590, num_basis=318, num_pairs=50221, num_threads=1
C  -0.2078780000  0.0000000000  -0.0103100000
O  -0.7488780000  -1.1275500000  0.0020150000
C  1.3449560000  -0.0000050000  -0.0048790000
H  1.6866020000  0.0000340000  1.0356990000
H  1.7364470000  0.8977900000  -0.4884330000
H  1.7364430000  -0.8978360000  -0.4883690000
O  -0.7488670000  1.1275550000  0.0020150000