18
charge=0, multiplicity=2, basis=def2-QZVPP, AUX_BASIS_CORR=rimp2-def2-QZVPPD, SCF_ALGORITHM=GDM, xc_grid=000099000590, mem_total=7500, num_basis=729, num_pairs=246429, num_threads=2
C  0.3155300000  1.4936200000  -0.1277600000
C  1.5674690000  0.6880410000  -0.0219340000
C  1.3165130000  -0.7451230000  0.4520370000
C  0.2368340000  -1.4328320000  -0.3841090000
C  -1.0569640000  -0.6472920000  -0.4455500000
C  -0.9881530000  0.8587360000  -0.3236570000
C  -1.6219870000  -0.0002830000  0.7762170000
H  0.3872470000  2.5710060000  -0.2161410000
H  2.2878540000  1.1850080000  0.6357430000
H  2.0581440000  0.6442580000  -1.0092550000
H  1.0235050000  -0.7371160000  1.5059010000
H  2.2429270000  -1.3216800000  0.3961390000
H  0.0420180000  -2.4356530000  0.0082950000
H  0.6114160000  -1.5630190000  -1.4057420000
H  -1.7820670000  -1.0308500000  -1.1551470000
H  -1.7048790000  1.4314210000  -0.9022740000
H  -2.6986320000  0.0500610000  0.8802410000
H  -1.0829890000  -0.0826420000  1.7107800000