26
charge=0, multiplicity=1, basis=def2-QZVPP, AUX_BASIS_CORR=rimp2-def2-QZVPPD, SCF_ALGORITHM=GDM, xc_grid=000099000590, mem_total=30000, num_basis=1104, num_pairs=479842, num_threads=8
C  2.5770360000  1.2426460000  -0.3485950000
C  1.2800410000  1.2234180000  0.1509130000
C  0.6634580000  0.0231440000  0.4884680000
C  1.3803530000  -1.1605220000  0.3174240000
C  2.6727650000  -1.1452120000  -0.1822770000
C  3.2779610000  0.0592420000  -0.5186340000
H  3.0371790000  2.1889410000  -0.6074290000
H  0.7544120000  2.1616960000  0.2713970000
H  0.9051370000  -2.0986200000  0.5759460000
H  3.2114120000  -2.0770200000  -0.3084570000
H  4.2879460000  0.0734720000  -0.9101480000
C  -0.7342770000  -0.0517940000  1.0941350000
C  -1.6340920000  1.1577670000  0.8395270000
C  -2.0985990000  1.2172190000  -0.6146030000
C  -1.7908780000  -1.2598200000  -0.6739050000
C  -2.7369530000  -0.1156370000  -1.0011040000
H  -1.2464850000  1.4167510000  -1.2718840000
H  -2.8054460000  2.0388560000  -0.7522440000
H  -0.9013600000  -1.2070820000  -1.3150320000
H  -2.2644550000  -2.2288870000  -0.8323850000
O  -1.4017850000  -1.2468240000  0.6937720000
H  -2.9824850000  -0.1399080000  -2.0664570000
H  -3.6700180000  -0.2544010000  -0.4457610000
H  -2.5062770000  1.0506060000  1.4905980000
H  -1.1329550000  2.0795910000  1.1398120000
H  -0.6132130000  -0.1721040000  2.1737760000