19
charge=-1, multiplicity=1, basis=def2-QZVPP, AUX_BASIS_CORR=rimp2-def2-QZVPPD, SCF_ALGORITHM=GDM, xc_grid=000099000590, mem_total=15000, num_basis=840, num_pairs=298152, num_threads=4
O  -2.8095020000  -1.4053030000  0.0721140000
C  -1.5471970000  -1.0825110000  -0.4922480000
C  -1.2541210000  0.3967690000  -0.2824100000
H  -1.5949980000  -1.3231120000  -1.5570970000
H  -0.7592080000  -1.6913700000  -0.0345120000
C  0.1314210000  0.8204510000  -0.7883240000
O  0.2468970000  2.2326900000  -0.7348980000
C  1.2040480000  0.1963370000  0.1046600000
H  0.2395830000  0.5154800000  -1.8316550000
C  1.9412190000  -0.9565100000  -0.4145470000
O  2.7168420000  -1.7169820000  0.2090830000
H  1.5334970000  -1.2557530000  -1.4098530000
O  1.2932940000  0.7099290000  1.2494350000
H  2.3977160000  0.2515690000  -0.8409230000
O  -1.4350980000  0.6924430000  1.0988510000
H  -2.0014590000  0.9851620000  -0.8245350000
H  -0.5456750000  0.7037430000  1.5077070000
H  0.5991540000  2.4070270000  0.1512870000
H  -2.8202990000  -0.9421640000  0.9201240000