41
charge=0, multiplicity=1, basis=def2-QZVPP, AUX_BASIS_CORR=rimp2-def2-QZVPPD, SCF_ALGORITHM=GDM, xc_grid=000099000590, mem_total=120000, num_basis=1770, num_pairs=1124463, num_threads=32
C  1.6324720000  1.0942860000  0.6203860000
C  0.5032100000  0.0035780000  0.6017110000
C  0.8631630000  2.4151930000  0.6661060000
C  2.5424870000  1.0639310000  -0.6074150000
C  0.9988690000  -1.3192870000  0.0270010000
C  -0.6099220000  0.6794320000  -0.2477040000
C  0.0342070000  -0.2031960000  2.0601600000
C  1.9258920000  -1.2693400000  -1.1640230000
C  3.1046710000  -0.3209920000  -0.9171820000
C  4.0352690000  -0.8473400000  0.1741500000
C  -0.3772280000  2.1471800000  -0.1687160000
C  -2.1951210000  0.0305990000  1.1362000000
C  -1.3954600000  -0.7429640000  2.1256960000
N  -2.9354520000  -0.5084800000  0.1626490000
O  -3.2127170000  0.3642110000  -0.7841690000
C  -1.5634940000  -1.2078650000  -1.6491580000
C  -2.5022860000  -1.7316180000  -0.5051340000
H  2.2377320000  0.9519450000  1.5183870000
H  1.4171100000  3.2607800000  0.2584900000
H  0.5539050000  2.6892250000  1.6781380000
H  3.3560900000  1.7788480000  -0.4537400000
H  1.9813710000  1.4179950000  -1.4794570000
O  0.6745580000  -2.3764620000  0.5225510000
H  0.0610770000  0.7651680000  2.5648950000
H  0.7200100000  -0.8623170000  2.5949930000
H  1.3600660000  -0.9045970000  -2.0261840000
H  2.2507510000  -2.2890450000  -1.3743020000
H  3.6783640000  -0.2556620000  -1.8462950000
H  4.4620680000  -1.8111020000  -0.1112790000
H  3.5147550000  -0.9948000000  1.1238120000
H  4.8595440000  -0.1527320000  0.3515060000
O  -1.0445340000  2.9983280000  -0.7071260000
H  -1.3999170000  -1.8075140000  1.9110470000
H  -1.8011370000  -0.6017600000  3.1310500000
H  -2.0021270000  -2.4147610000  0.1747650000
H  -3.3806260000  -2.2119890000  -0.9286800000
C  -1.3241360000  0.2479820000  -1.3847660000
H  -2.0569680000  -1.3266440000  -2.6113370000
H  -0.6569150000  -1.8087100000  -1.6607070000
H  -1.4840300000  0.9667830000  -2.1768280000
H  -2.4969730000  1.0441540000  1.3692610000