13
charge=0, multiplicity=2, basis=def2-QZVPP, AUX_BASIS_CORR=rimp2-def2-QZVPPD, SCF_ALGORITHM=GDM, xc_grid=000099000590, mem_total=3750, num_basis=498, num_pairs=118713, num_threads=1
C  0.0000010000  0.0000000000  -0.1611370000
C  -0.2899060000  1.4511870000  0.0160310000
C  1.4017230000  -0.4745300000  0.0160320000
C  -1.1118170000  -0.9766600000  0.0160320000
H  0.4886990000  2.0766860000  -0.4283130000
H  -0.3449150000  1.7258870000  1.0829240000
H  -1.2489590000  1.7295820000  -0.4285310000
H  2.1223440000  0.2167650000  -0.4286500000
H  1.5540790000  -1.4616290000  -0.4281960000
H  1.6671660000  -0.5641040000  1.0829260000
H  -2.0427510000  -0.6152470000  -0.4285640000
H  -1.3224030000  -1.1614200000  1.0829260000
H  -0.8732680000  -1.9465040000  -0.4282810000