22
charge=0, multiplicity=1, basis=def2-QZVPP, AUX_BASIS_CORR=rimp2-def2-QZVPPD, SCF_ALGORITHM=GDM, xc_grid=000099000590, mem_total=15000, num_basis=930, num_pairs=355366, num_threads=4
C  2.8722820000  0.0188050000  0.0113950000
C  2.1748590000  -1.1794220000  -0.0436330000
C  0.7872300000  -1.1812400000  -0.0639490000
C  0.0702200000  0.0129610000  -0.0344680000
C  0.7807590000  1.2098540000  0.0261140000
C  2.1687240000  1.2139220000  0.0483250000
H  3.9554520000  0.0216650000  0.0261870000
H  2.7126010000  -2.1198860000  -0.0694290000
H  0.2455830000  -2.1174910000  -0.1013640000
H  0.2554010000  2.1557610000  0.0561640000
H  2.7011210000  2.1566710000  0.0923600000
C  -1.4572420000  -0.0213700000  -0.0083330000
O  -1.9319210000  -1.2252430000  -0.6201420000
H  -1.6711070000  -1.2222840000  -1.5463290000
C  -2.0841860000  1.1722650000  -0.7268120000
H  -3.1659380000  1.0362450000  -0.7561340000
H  -1.8744190000  2.1139820000  -0.2186800000
H  -1.7132880000  1.2513880000  -1.7519910000
C  -1.9450550000  -0.0978360000  1.4347810000
H  -1.6128780000  0.7753180000  1.9982750000
H  -3.0353340000  -0.1446310000  1.4564510000
H  -1.5473730000  -0.9924300000  1.9150910000