26
charge=0, multiplicity=1, basis=def2-QZVPP, mem_total=30000, AUX_BASIS_CORR=rimp2-def2-QZVPPD, SCF_ALGORITHM=GDM, xc_grid=000099000590, num_basis=1212, num_pairs=504693, num_threads=8
O  -1.2890300000  -0.1322460000  0.9742620000
C  -2.1618850000  -1.0357890000  0.4405280000
C  -2.1460550000  -2.3219310000  0.7585230000
C  2.1560240000  -0.0676290000  -0.1194540000
C  0.9352030000  -0.5584170000  0.1045640000
C  -0.2546940000  0.3498500000  0.1004250000
C  2.3536690000  1.3763640000  -0.3233060000
C  1.3760070000  2.2271370000  -0.0256450000
C  0.0830190000  1.7525000000  0.5707960000
H  3.3073450000  1.7195740000  -0.6988390000
H  1.4886100000  3.2979550000  -0.1410650000
H  0.2036020000  1.7039830000  1.6659130000
O  -0.9401890000  2.6655510000  0.2391540000
H  -1.7882240000  2.2547330000  0.4450590000
C  -3.2387750000  -0.4996200000  -0.4485480000
O  -3.2498900000  0.8489580000  -0.4787940000
O  -4.0215820000  -1.1691560000  -1.0625130000
C  3.2922820000  -1.0227470000  -0.1720660000
O  3.2108340000  -2.2107710000  -0.0021920000
O  4.4641310000  -0.4137060000  -0.4382330000
H  -3.9604290000  1.1190000000  -1.0778280000
H  5.1450250000  -1.1005120000  -0.4553010000
H  -1.3946550000  -2.7129580000  1.4308690000
H  -2.9024110000  -2.9822330000  0.3588020000
H  -0.6476800000  0.4169980000  -0.9243270000
H  0.7858570000  -1.6238890000  0.2283350000