45
charge=0, multiplicity=2, basis=def2-QZVPP, mem_total=120000, AUX_BASIS_CORR=rimp2-def2-QZVPPD, SCF_ALGORITHM=GDM, xc_grid=000099000590, num_basis=2025, num_pairs=1236695, num_threads=32
N  -1.4822370000  -0.0809900000  0.9801570000
C  -2.1217350000  -0.9957140000  0.1140130000
C  -2.0237700000  1.0883930000  1.4797880000
O  -3.1314700000  1.5213890000  1.2591560000
C  -0.9789370000  1.7501450000  2.3533800000
C  0.0432380000  0.6519200000  2.6155360000
H  -1.4511820000  2.1528030000  3.2478470000
H  -0.5568800000  2.5857630000  1.7903640000
C  -0.0847310000  -0.2732730000  1.3837310000
H  -0.2237320000  0.0908350000  3.5133870000
H  1.0615180000  1.0192720000  2.7343960000
C  0.9266580000  0.0658370000  0.3094660000
C  2.1265550000  -0.7008930000  0.1835450000
C  2.5106710000  -1.6780120000  1.1330820000
C  2.9785140000  -0.5271980000  -0.9344080000
C  4.1252230000  -1.2787340000  -1.0883000000
C  3.6639440000  -2.4221990000  0.9714960000
C  4.4810570000  -2.2323180000  -0.1377990000
H  1.9147280000  -1.8402520000  2.0209590000
H  3.9336110000  -3.1553610000  1.7223890000
H  2.7085800000  0.1962850000  -1.6916710000
H  4.7481790000  -1.1275120000  -1.9618570000
H  5.3823970000  -2.8196690000  -0.2608660000
C  0.7527610000  1.3166960000  -0.4547780000
C  -0.3479560000  1.5450550000  -1.2852810000
C  1.7020990000  2.3373060000  -0.3185280000
C  -0.4998870000  2.7579040000  -1.9412760000
C  0.4402180000  3.7657160000  -1.7827250000
C  1.5461450000  3.5495520000  -0.9705070000
H  2.5648250000  2.1729660000  0.3162490000
H  0.3144760000  4.7136480000  -2.2916190000
H  2.2881400000  4.3285760000  -0.8420200000
H  -1.0820670000  0.7661840000  -1.4361700000
H  -1.3610450000  2.9130030000  -2.5796630000
C  -3.4937440000  -0.9252220000  -0.1468440000
C  -4.0835060000  -1.8504940000  -0.9938220000
C  -3.3374930000  -2.8541630000  -1.5950070000
C  -1.3698920000  -2.0046020000  -0.4950010000
C  -1.9774430000  -2.9226420000  -1.3382120000
H  -4.0821350000  -0.1449870000  0.3068380000
H  -5.1481800000  -1.7800380000  -1.1824240000
H  -0.3045870000  -2.0753200000  -0.3321300000
H  -1.3721470000  -3.6938160000  -1.7992820000
H  -3.8093290000  -3.5707970000  -2.2555800000
H  0.0343200000  -1.3141190000  1.6772290000