24
charge=0, multiplicity=1, basis=def2-QZVPP, mem_total=30000, AUX_BASIS_CORR=rimp2-def2-QZVPPD, SCF_ALGORITHM=GDM, xc_grid=000099000590, num_basis=1044, num_pairs=457387, num_threads=8
C  1.4337900000  -0.0137260000  -0.1172560000
N  1.1450660000  -0.8237240000  1.0769490000
N  -0.0352880000  -1.1595030000  1.1893750000
C  -0.9153490000  -0.6994170000  0.1016890000
N  -0.2674020000  -1.1267970000  -1.1847030000
N  0.9031130000  -0.7835630000  -1.2951190000
C  0.5586870000  1.2391360000  -0.0597290000
C  -0.8730190000  0.8443600000  0.0469310000
C  -0.2235780000  1.5933600000  1.1776230000
H  -0.5080780000  2.6331150000  1.2753300000
H  -0.0040340000  1.0984760000  2.1120190000
C  -2.2748790000  -1.3327940000  0.2351760000
H  -2.8966820000  -1.0945000000  -0.6267510000
H  -2.1678040000  -2.4157560000  0.2958910000
H  -2.7657470000  -0.9807090000  1.1434260000
C  2.9120940000  0.2194460000  -0.2678410000
H  3.2904270000  0.7788610000  0.5883530000
H  3.4373690000  -0.7342070000  -0.3236620000
H  3.1119520000  0.7810730000  -1.1809840000
C  -1.9406650000  1.5031790000  -0.7894150000
H  -1.9741850000  1.0780440000  -1.7947670000
H  -2.9274740000  1.3924650000  -0.3358790000
H  -1.7350400000  2.5709540000  -0.8808680000
H  0.8583870000  2.0260300000  -0.7406820000