21
charge=0, multiplicity=1, basis=def2-QZVPP, AUX_BASIS_CORR=rimp2-def2-QZVPPD, SCF_ALGORITHM=GDM, xc_grid=000099000590, mem_total=15000, num_basis=873, num_pairs=316980, num_threads=4
C  -2.6342750000  -0.0708610000  1.1682510000
C  -1.7298560000  -0.0970620000  0.1979080000
C  -1.2988190000  1.1325600000  -0.5515650000
C  0.1981330000  1.4066730000  -0.3183310000
C  1.0005350000  0.1143300000  -0.3122860000
C  2.1757810000  0.0234750000  0.2370970000
C  3.3521230000  -0.0644740000  0.7867820000
C  0.3108080000  -1.0692980000  -0.9471830000
H  0.3347120000  1.9214870000  0.6340020000
H  -1.8913750000  1.9981330000  -0.2524010000
C  -1.0103920000  -1.3651690000  -0.2164200000
H  0.5758260000  2.0724620000  -1.1001290000
H  -1.4766510000  0.9796770000  -1.6218210000
H  3.4691780000  -0.3425600000  1.8291510000
H  4.2566330000  0.1372050000  0.2221780000
H  0.9590740000  -1.9448910000  -0.9399060000
H  0.1055870000  -0.8327110000  -1.9968660000
H  -0.8137910000  -1.9740790000  0.6685590000
H  -1.6597810000  -1.9562190000  -0.8706240000
H  -2.9006570000  -0.9657940000  1.7201080000
H  -3.1429870000  0.8462480000  1.4422270000