20
charge=0, multiplicity=2, basis=def2-QZVPP, AUX_BASIS_CORR=rimp2-def2-QZVPPD, SCF_ALGORITHM=GDM, xc_grid=000099000590, mem_total=15000, num_basis=870, num_pairs=291977, num_threads=4
N  -0.9658990000  -0.5936870000  0.0000260000
C  -1.9838640000  0.3628750000  -0.0000730000
C  -3.2505060000  -0.0269810000  0.7432100000
H  -1.7435680000  1.4208670000  -0.0002350000
C  -3.2505600000  -0.0271920000  -0.7431480000
H  -3.7714480000  0.7643360000  1.2665230000
H  -3.2171010000  -0.9807740000  1.2508760000
H  -3.7715420000  0.7639750000  -1.2666470000
H  -3.2171910000  -0.9811310000  -1.2505440000
C  0.3319050000  -0.2307640000  0.0000070000
C  1.2754900000  -1.2917500000  0.0000810000
C  2.6300520000  -1.0450280000  0.0000680000
C  3.1042490000  0.2671700000  -0.0000140000
C  2.1992750000  1.3274300000  -0.0000820000
C  0.8389480000  1.0963320000  -0.0000730000
H  0.1632840000  1.9399170000  -0.0001210000
H  4.1694640000  0.4624610000  -0.0000220000
H  2.5670420000  2.3467840000  -0.0001410000
H  0.8830560000  -2.3006740000  0.0001460000
H  3.3293600000  -1.8725020000  0.0001240000