26
charge=-1, multiplicity=1, basis=def2-QZVPP, AUX_BASIS_CORR=rimp2-def2-QZVPPD, SCF_ALGORITHM=GDM, xc_grid=000099000590, mem_total=30000, num_basis=1158, num_pairs=485299, num_threads=8
C  1.0518740000  -0.8485980000  -0.2677290000
C  2.5986450000  -0.8055020000  -0.5641680000
C  3.1200160000  0.3722260000  0.2813780000
C  2.4188410000  1.7185630000  0.0461130000
C  0.9569120000  1.6129330000  -0.2744300000
C  0.3122840000  0.4553260000  -0.4033390000
H  0.4084750000  2.5459290000  -0.3928020000
C  -1.1634750000  0.4384060000  -0.7179880000
C  -2.0483930000  -0.0502350000  0.4406810000
H  -1.3522180000  -0.2071940000  -1.5853520000
H  -1.5021680000  1.4417780000  -0.9797840000
C  -3.5163200000  0.2549100000  0.1142350000
O  -3.9611460000  1.3688480000  0.0393590000
O  -4.2519210000  -0.8361740000  -0.0979950000
N  -1.9105680000  -1.4927120000  0.6865990000
H  -1.7972630000  0.5384600000  1.3268510000
O  4.0371410000  0.3204540000  1.0678450000
O  3.1734850000  -1.9742830000  -0.4395300000
H  -3.6201840000  -1.5800340000  0.0656110000
H  -1.0747830000  -1.8637140000  0.2504740000
H  -1.8413580000  -1.6970330000  1.6757610000
H  2.5842330000  2.3372280000  0.9345220000
H  2.9457970000  2.2224980000  -0.7740520000
H  0.9612100000  -1.2626900000  0.7445360000
H  0.6517680000  -1.6030740000  -0.9549040000
H  2.6476970000  -0.3420980000  -1.6030030000