14
charge=0, multiplicity=2, basis=def2-QZVPP, mem_total=3750, AUX_BASIS_CORR=rimp2-def2-QZVPPD, SCF_ALGORITHM=GDM, xc_grid=000099000590, num_basis=555, num_pairs=147664, num_threads=1
C  0.0001510000  1.3797660000  -0.5750390000
C  -0.0000040000  -0.0251310000  0.0765800000
H  -0.8880530000  1.9384840000  -0.2811780000
H  0.8884850000  1.9382830000  -0.2811900000
H  0.0001280000  1.2521890000  -1.6590810000
C  1.2685930000  -0.7880470000  -0.3128360000
C  -1.2687730000  -0.7877660000  -0.3128250000
H  1.2977310000  -1.7529190000  0.1968940000
H  1.2983730000  -0.9694950000  -1.3895250000
H  2.1539870000  -0.2202460000  -0.0244760000
H  -1.2986070000  -0.9692050000  -1.3895140000
H  -1.2981190000  -1.7526320000  0.1969030000
H  -2.1540380000  -0.2197700000  -0.0244530000
O  0.0000390000  0.2602970000  1.4250430000