21
charge=0, multiplicity=2, basis=def2-QZVPP, AUX_BASIS_CORR=rimp2-def2-QZVPPD, SCF_ALGORITHM=GDM, xc_grid=000099000590, mem_total=15000, num_basis=900, num_pairs=324559, num_threads=4
C  1.8611750000  1.2044720000  -0.7691400000
C  2.6930160000  0.6838850000  0.2229090000
C  2.3301770000  -0.4838310000  0.8827430000
C  1.1468620000  -1.1385460000  0.5655060000
C  0.2876860000  -0.6444790000  -0.4224010000
C  0.7109490000  0.5107490000  -1.0316380000
H  2.1213140000  2.1131070000  -1.2989030000
H  3.6182320000  1.1897600000  0.4732550000
H  2.9775090000  -0.8913270000  1.6497710000
H  0.8795210000  -2.0529370000  1.0864530000
C  -1.0204750000  -1.3180620000  -0.7427880000
C  -2.1740690000  -0.8343250000  0.1552310000
H  -0.9079010000  -2.3983400000  -0.6224540000
H  -1.2765720000  -1.1379890000  -1.7895510000
C  -2.5240390000  0.6049710000  -0.0629560000
H  -1.9125920000  -0.9958320000  1.2046800000
H  -3.0517630000  -1.4546440000  -0.0565660000
C  -2.4421780000  1.5552200000  0.8559560000
H  -2.8553250000  0.8662470000  -1.0662870000
H  -2.1032090000  1.3386840000  1.8637320000
H  -2.7038390000  2.5829500000  0.6353340000