22
charge=0, multiplicity=1, basis=def2-QZVPP, AUX_BASIS_CORR=rimp2-def2-QZVPPD, SCF_ALGORITHM=GDM, xc_grid=000099000590, mem_total=15000, num_basis=930, num_pairs=355366, num_threads=4
C  2.8722810000  0.0188050000  0.0113960000
C  2.1687250000  1.2139220000  0.0483270000
C  0.7807590000  1.2098550000  0.0261150000
C  0.0702200000  0.0129620000  -0.0344680000
C  0.7872290000  -1.1812390000  -0.0639500000
C  2.1748590000  -1.1794220000  -0.0436340000
H  3.9554520000  0.0216640000  0.0261880000
H  2.7011230000  2.1566700000  0.0923630000
H  0.2554020000  2.1557620000  0.0561650000
H  0.2455810000  -2.1174900000  -0.1013680000
H  2.7126000000  -2.1198860000  -0.0694310000
C  -1.4572420000  -0.0213690000  -0.0083330000
O  -1.9319200000  -1.2252340000  -0.6201610000
C  -1.9450550000  -0.0978580000  1.4347800000
H  -1.6128780000  0.7752870000  1.9982870000
H  -3.0353340000  -0.1446540000  1.4564490000
H  -1.5473720000  -0.9924600000  1.9150760000
C  -2.0841870000  1.1722760000  -0.7267930000
H  -1.7132890000  1.2514170000  -1.7519700000
H  -3.1659390000  1.0362540000  -0.7561180000
H  -1.8744230000  2.1139850000  -0.2186450000
H  -1.6711020000  -1.2222620000  -1.5463470000