24
charge=1, multiplicity=2, basis=def2-QZVPP, AUX_BASIS_CORR=rimp2-def2-QZVPPD, SCF_ALGORITHM=GDM, xc_grid=000099000590, mem_total=15000, num_basis=963, num_pairs=413175, num_threads=4
N  1.5028450000  0.0000280000  -0.0000160000
C  1.1686610000  -0.9760090000  -1.0075850000
C  -0.4079250000  -1.0693620000  -0.9600780000
C  -0.9532890000  -0.0000090000  0.0000040000
C  1.1686300000  1.3606030000  -0.3414830000
C  -0.4079560000  1.3661430000  -0.4459960000
C  -2.4798660000  -0.0000020000  -0.0000030000
H  -2.8699260000  -0.9778790000  0.2872930000
C  1.1686830000  -0.3845660000  1.3490270000
C  -0.4079090000  -0.2968270000  1.4061220000
H  1.6363040000  -1.9277770000  -0.7623710000
H  1.5251170000  -0.6281350000  -1.9748700000
H  -0.6994070000  -2.0662970000  -0.6285510000
H  -0.7967910000  -0.9241380000  -1.9679990000
H  1.6362260000  1.6241210000  -1.2883720000
H  1.5251430000  2.0243720000  0.4433940000
H  -0.6994890000  1.5775870000  -1.4750980000
H  -0.7967960000  2.1663590000  0.1838190000
H  -2.8699000000  0.2401370000  -0.9905270000
H  -2.8699140000  0.7377550000  0.7032120000
H  1.6362850000  0.3037170000  2.0506690000
H  1.5251940000  -1.3961750000  1.5314190000
H  -0.6994010000  0.4886950000  2.1037860000
H  -0.7967320000  -1.2423620000  1.7842620000