31
charge=-1, multiplicity=1, basis=def2-QZVPP, mem_total=30000, AUX_BASIS_CORR=rimp2-def2-QZVPPD, SCF_ALGORITHM=GDM, xc_grid=000099000590, num_basis=1389, num_pairs=656278, num_threads=8
C  -1.6412800000  -2.0535660000  0.0480590000
N  -0.3151240000  -1.6855360000  -0.3912840000
C  0.6415930000  -1.5985060000  0.4412200000
C  1.9644070000  -0.9967200000  -0.0062370000
O  2.9954350000  -1.2946100000  0.6856350000
C  1.9211920000  -0.0724110000  -1.0245340000
C  3.1918140000  0.5787480000  -1.4915130000
C  0.5786750000  -1.9707210000  1.8970700000
H  -0.0384950000  -2.8520620000  2.0775360000
H  0.1634950000  -1.1289770000  2.4603020000
H  1.5974510000  -2.1411950000  2.2412160000
C  -2.6461190000  -1.1845080000  -0.6808760000
H  -1.8731600000  -3.0922870000  -0.2037890000
H  -1.8171630000  -1.9116070000  1.1224890000
O  -3.6859370000  -1.6157460000  -1.1223790000
C  -2.2648900000  0.2733750000  -0.8632970000
O  -1.9300890000  0.8070680000  0.4057970000
H  -3.1195790000  0.7983080000  -1.2979690000
H  -1.4185600000  0.3113300000  -1.5511670000
C  -0.9951260000  1.8583070000  0.4878610000
O  -1.5125340000  2.6983530000  1.4719470000
O  0.2371310000  1.4665240000  0.8884050000
O  -0.9035580000  2.5382520000  -0.7346220000
O  4.0653980000  0.9116320000  -0.4200360000
H  3.9794590000  0.1510980000  0.1923240000
H  -0.7434190000  3.0269920000  1.9491880000
H  -1.6860470000  3.0944430000  -0.8013540000
H  0.7934230000  1.0276030000  0.1814680000
H  2.9731940000  1.5073760000  -2.0292130000
H  3.7296610000  -0.0786320000  -2.1999600000
H  1.0372580000  -0.0094190000  -1.6465670000