5
charge=0, multiplicity=2, basis=def2-QZVPP, AUX_BASIS_CORR=rimp2-def2-QZVPPD, SCF_ALGORITHM=GDM, xc_grid=000099000590, mem_total=3750, num_basis=217, num_pairs=23946, num_threads=1
C  1.1053850000  0.0000190000  -0.0084210000
S  -0.6917110000  0.0000030000  -0.0018470000
H  1.4237130000  -0.0009660000  1.0390910000
H  1.5056360000  -0.8965170000  -0.4802790000
H  1.5057210000  0.8973210000  -0.4787290000