16
charge=-1, multiplicity=1, basis=def2-QZVPP, AUX_BASIS_CORR=rimp2-def2-QZVPPD, SCF_ALGORITHM=GDM, xc_grid=000099000590, mem_total=7500, num_basis=669, num_pairs=195343, num_threads=2
C  1.8574310000  -0.9355210000  -0.8343950000
C  1.2943860000  -0.0569910000  0.2783140000
C  0.2100770000  -0.5562200000  1.0140640000
O  1.7328550000  1.1109780000  0.3549230000
C  -1.5670460000  0.1421090000  -0.1135230000
C  -2.4740150000  -0.8418650000  -0.0557990000
C  -1.2855820000  1.3912420000  -0.4652540000
H  2.9491210000  -0.8876800000  -0.8180680000
H  1.5327220000  -1.9761840000  -0.7636530000
H  1.5215250000  -0.5267780000  -1.7930480000
H  -0.1036200000  -0.0104510000  1.8962640000
H  -0.0162680000  -1.6140780000  0.9849400000
H  -0.5124370000  1.9688540000  0.0267650000
H  -1.7396230000  1.7998700000  -1.3628600000
H  -3.5015060000  -0.6121450000  0.2072720000
H  -2.2042550000  -1.8857610000  -0.1574380000