24
charge=1, multiplicity=1, basis=def2-QZVPP, AUX_BASIS_CORR=rimp2-def2-QZVPPD, SCF_ALGORITHM=GDM, xc_grid=000099000590, mem_total=15000, num_basis=1071, num_pairs=412994, num_threads=4
C  0.0000000000  -1.0219790000  0.0000030000
C  -1.2793360000  -0.4329780000  -0.0441920000
C  -2.3820410000  -1.2581030000  0.2862560000
C  -1.5199630000  0.9093460000  -0.4268680000
C  -3.6575340000  -0.7418260000  0.3170000000
H  -2.2081630000  -2.2961750000  0.5439910000
C  -2.8011830000  1.4073370000  -0.4197790000
H  -0.7078860000  1.5234980000  -0.7886310000
C  -3.8648830000  0.5902290000  -0.0321220000
H  -4.4945690000  -1.3686530000  0.5944330000
H  -2.9900700000  2.4255890000  -0.7334750000
H  -4.8708380000  0.9926480000  -0.0281610000
C  1.2793360000  -0.4329780000  0.0441940000
C  2.3820390000  -1.2581030000  -0.2862560000
C  1.5199640000  0.9093460000  0.4268700000
C  3.6575330000  -0.7418270000  -0.3170030000
H  2.2081610000  -2.2961750000  -0.5439920000
C  2.8011840000  1.4073360000  0.4197790000
H  0.7078880000  1.5234980000  0.7886340000
C  3.8648830000  0.5902290000  0.0321190000
H  4.4945670000  -1.3686530000  -0.5944380000
H  2.9900720000  2.4255880000  0.7334750000
H  4.8708390000  0.9926470000  0.0281570000
H  0.0000000000  -2.1099890000  0.0000020000