24
charge=0, multiplicity=2, basis=def2-QZVPP, mem_total=30000, AUX_BASIS_CORR=rimp2-def2-QZVPPD, SCF_ALGORITHM=GDM, xc_grid=000099000590, num_basis=1110, num_pairs=452822, num_threads=8
H  0.6040450000  -2.7532500000  -0.1723540000
C  1.2887760000  -1.9248930000  -0.0446840000
C  3.0386380000  0.1582090000  0.3428640000
C  0.7576840000  -0.6389960000  0.1877220000
C  2.6484720000  -2.1635750000  -0.0741430000
C  3.5386160000  -1.1191680000  0.1314360000
C  1.6761620000  0.4308030000  0.3675380000
H  3.0119320000  -3.1695810000  -0.2454650000
H  4.6075720000  -1.2910220000  0.1184240000
H  3.7311010000  0.9823000000  0.4756260000
C  1.2707600000  1.8721780000  0.4894560000
H  0.5457520000  2.0451400000  1.2807420000
H  2.1459040000  2.4795000000  0.7114370000
C  -0.6730980000  -0.4837350000  0.1822930000
C  -3.0909270000  0.5161120000  0.2094060000
C  -3.2697070000  -0.9350490000  -0.1963480000
H  -3.9221040000  0.8735840000  0.8170100000
H  -2.9668550000  1.1616690000  -0.6601110000
H  -3.9945580000  -1.0414950000  -1.0034750000
H  -3.5816810000  -1.5434590000  0.6523700000
S  0.4555420000  2.5531320000  -1.0080140000
S  -1.5840430000  0.5905580000  1.2193450000
S  -1.6682210000  -1.5365180000  -0.8166780000
H  1.4541850000  2.2705490000  -1.8618870000