19
charge=1, multiplicity=2, basis=def2-QZVPP, AUX_BASIS_CORR=rimp2-def2-QZVPPD, SCF_ALGORITHM=GDM, xc_grid=000099000590, mem_total=7500, num_basis=813, num_pairs=263234, num_threads=2
N  0.5245940000  1.5438640000  -0.2675990000
H  0.9887690000  1.7550540000  0.6243870000
C  0.9112870000  0.1759680000  -0.6896210000
H  -0.5304190000  1.5670730000  -0.1326190000
H  0.8015270000  2.2564160000  -0.9465710000
C  2.1924510000  -0.2868900000  -0.1048410000
H  -0.0481070000  -0.5751970000  -0.1487350000
H  0.7986650000  0.0331870000  -1.7593550000
O  2.4040390000  0.3361960000  1.0781920000
N  2.9829300000  -1.1567610000  -0.5411480000
C  -1.1521960000  -1.0915030000  0.4840310000
C  -2.2431890000  -0.1595570000  0.1117880000
H  -1.2592050000  -2.1145910000  0.1371920000
H  -0.8451630000  -1.0051180000  1.5246200000
O  -2.0699070000  1.0432600000  -0.0263980000
O  -3.4073600000  -0.7351150000  -0.0727550000
H  3.2291610000  0.0103300000  1.4681290000
H  -4.0767260000  -0.0698300000  -0.3048630000
H  2.7245320000  -1.5498850000  -1.4414200000