20
charge=0, multiplicity=1, basis=def2-QZVPP, AUX_BASIS_CORR=rimp2-def2-QZVPPD, SCF_ALGORITHM=GDM, xc_grid=000099000590, mem_total=15000, num_basis=924, num_pairs=342579, num_threads=4
O  -1.4191020000  1.2653050000  0.7511420000
C  -1.1900510000  0.0001960000  0.7564910000
C  -0.0280810000  -0.5572830000  1.2255580000
H  0.6017160000  0.0073250000  1.8969370000
H  0.0965250000  -1.6311830000  1.1713610000
C  -2.1568810000  -0.8582220000  -0.0369950000
O  -3.2040590000  -0.1632680000  -0.4928850000
O  -2.0046030000  -2.0265530000  -0.2506390000
C  -0.4120190000  2.0663750000  -0.6971620000
C  0.8600390000  1.5874450000  -0.4044740000
H  1.5308710000  2.1758530000  0.2107390000
H  -0.6669980000  3.0949810000  -0.4840130000
H  -0.9977910000  1.5930520000  -1.4754580000
C  1.1409160000  0.2516100000  -0.5699520000
H  0.5982020000  -0.3594910000  -1.2792120000
C  2.4593230000  -0.2811270000  -0.1346540000
O  3.2318070000  0.2910410000  0.5858520000
O  2.6895710000  -1.5017390000  -0.6428780000
H  -3.1047150000  0.7443160000  -0.1551640000
H  3.5538160000  -1.7971020000  -0.3227960000