23
charge=0, multiplicity=2, basis=def2-QZVPP, AUX_BASIS_CORR=rimp2-def2-QZVPPD, SCF_ALGORITHM=GDM, xc_grid=000099000590, mem_total=15000, num_basis=1000, num_pairs=384202, num_threads=4
C  -0.3629050000  1.3235220000  0.0000290000
F  -1.7695300000  -0.1853670000  -0.0000230000
C  -0.8395710000  1.9511380000  -1.2688770000
C  0.8295970000  0.5034910000  0.0000210000
C  -0.8395970000  1.9510750000  1.2689570000
H  -0.8721150000  1.2415860000  -2.0935560000
H  -0.1733350000  2.7746600000  -1.5578150000
H  -1.8409170000  2.3583720000  -1.1386520000
C  1.4307900000  0.0862730000  -1.2016960000
C  1.4307640000  0.0862100000  1.2017300000
H  -0.1733670000  2.7745820000  1.5579500000
H  -0.8721570000  1.2414820000  2.0936000000
H  -1.8409400000  2.3583160000  1.1387330000
S  -2.9910610000  -1.6170380000  -0.0000710000
H  -1.9741790000  -2.4955470000  -0.0000820000
C  2.5637850000  -0.7061600000  1.1997020000
C  3.1379600000  -1.1098730000  0.0000040000
C  2.5638110000  -0.7060980000  -1.1996850000
H  1.0047850000  0.3832740000  -2.1495430000
H  3.0037420000  -1.0124970000  -2.1411410000
H  1.0047380000  0.3831630000  2.1495830000
H  3.0036950000  -1.0126080000  2.1411510000
H  4.0249940000  -1.7313480000  -0.0000020000