14
charge=0, multiplicity=2, basis=def2-QZVPP, AUX_BASIS_CORR=rimp2-def2-QZVPPD, SCF_ALGORITHM=GDM, xc_grid=000099000590, mem_total=3750, num_basis=636, num_pairs=178390, num_threads=1
O  2.7622090000  0.0000000000  0.0060070000
C  1.5187830000  0.0000000000  0.0016430000
C  0.7513730000  1.2278890000  -0.0008080000
C  -0.6106270000  1.2199920000  -0.0040410000
C  -1.3264850000  0.0000000000  -0.0031560000
C  -0.6106270000  -1.2199920000  -0.0040420000
C  0.7513730000  -1.2278890000  -0.0008080000
H  1.3100750000  -2.1554590000  0.0003990000
H  -1.1646420000  2.1529010000  -0.0082210000
H  1.3100750000  2.1554590000  0.0003990000
H  -1.1646420000  -2.1529010000  -0.0082220000
N  -2.6911260000  0.0000000000  -0.0293730000
H  -3.1967030000  -0.8561660000  0.1202330000
H  -3.1967030000  0.8561670000  0.1202270000