9
charge=-1, multiplicity=1, basis=def2-QZVPP, AUX_BASIS_CORR=rimp2-def2-QZVPPD, SCF_ALGORITHM=GDM, xc_grid=000099000590, mem_total=3750, num_basis=378, num_pairs=69747, num_threads=1
C  1.2844390000  -0.4841570000  0.0001150000
C  -0.1336060000  0.1103260000  -0.0000180000
C  -1.1864050000  -0.7809360000  0.0000100000
O  -0.1874550000  1.3768160000  -0.0001410000
H  1.8231380000  -0.1198670000  0.8808740000
H  1.2950800000  -1.5784620000  0.0002200000
H  1.8232330000  -0.1200340000  -0.8806540000
H  -1.0203570000  -1.8522520000  0.0001200000
H  -2.2080220000  -0.4153080000  -0.0000800000