7
charge=0, multiplicity=1, basis=def2-QZVPP, AUX_BASIS_CORR=rimp2-def2-QZVPPD, SCF_ALGORITHM=GDM, xc_grid=000099000590, mem_total=3750, num_basis=291, num_pairs=42870, num_threads=1
C  -0.0000020000  0.5306010000  -0.0000100000
O  -1.1615770000  -0.2473870000  0.0951940000
O  1.1615630000  -0.2474010000  -0.0951950000
H  1.2467200000  -0.7700690000  0.7084730000
H  -0.0016120000  1.1574950000  -0.8947180000
H  0.0016100000  1.1575130000  0.8946850000
H  -1.2466000000  -0.7702370000  -0.7083700000