15
charge=0, multiplicity=1, basis=def2-QZVPP, mem_total=3750, AUX_BASIS_CORR=rimp2-def2-QZVPPD, SCF_ALGORITHM=GDM, xc_grid=000099000590, num_basis=585, num_pairs=163528, num_threads=1
H  0.9501550000  -0.0000010000  1.7316160000
C  -1.4850890000  0.0000020000  -0.3406970000
C  -0.0060340000  0.0000000000  0.0127230000
H  -1.9707400000  -0.8842490000  0.0750090000
H  -1.9707380000  0.8842550000  0.0750080000
H  -1.6244180000  0.0000010000  -1.4235330000
C  0.6806090000  1.2569210000  -0.5150920000
C  0.6806060000  -1.2569230000  -0.5150920000
H  1.7366740000  1.2712140000  -0.2295690000
H  0.6298600000  1.3049630000  -1.6052420000
H  0.2027180000  2.1476650000  -0.1040390000
H  0.6298570000  -1.3049640000  -1.6052420000
H  1.7366710000  -1.2712180000  -0.2295680000
H  0.2027120000  -2.1476650000  -0.1040390000
O  0.0320870000  0.0000000000  1.4460680000