32
charge=0, multiplicity=2, basis=def2-QZVPP, mem_total=30000, AUX_BASIS_CORR=rimp2-def2-QZVPPD, SCF_ALGORITHM=GDM, xc_grid=000099000590, num_basis=1351, num_pairs=651039, num_threads=8
C  -2.5162090000  1.2011090000  0.3144740000
C  -1.4191760000  0.5531980000  -0.2279020000
C  -1.4329800000  -0.8562330000  -0.4841830000
C  -2.6014930000  -1.5872310000  -0.1977120000
C  -3.6977710000  -0.9297770000  0.3341860000
C  -3.6577270000  0.4433150000  0.5898820000
H  -2.4968630000  2.2632020000  0.5234050000
H  -2.6344410000  -2.6529550000  -0.3902560000
H  -4.5989490000  -1.4863300000  0.5610090000
H  -4.5267950000  0.9318960000  1.0132510000
C  -0.1881290000  -1.2099640000  -0.9999350000
C  0.7018220000  -0.0114730000  -1.0131970000
N  -0.2089590000  1.0611670000  -0.6055950000
Si  2.1556610000  -0.2620050000  0.2272000000
C  1.4223100000  -0.3519770000  1.9462950000
H  0.7017620000  -1.1687450000  2.0220790000
H  2.1986980000  -0.5134100000  2.6983840000
H  0.8980740000  0.5721160000  2.2004690000
C  3.3775820000  1.1625510000  0.1079090000
H  4.2558270000  0.9582710000  0.7264310000
H  3.7271480000  1.3053480000  -0.9180430000
H  2.9486750000  2.1056750000  0.4511810000
C  3.0376470000  -1.8543020000  -0.2283050000
H  3.3819030000  -1.8389180000  -1.2658590000
H  3.9155070000  -2.0036910000  0.4055830000
H  2.3866740000  -2.7218470000  -0.1031500000
C  0.1595260000  2.4446700000  -0.4933450000
H  0.4242220000  2.7353200000  0.5318900000
H  1.0143860000  2.6473210000  -1.1386530000
H  -0.6673220000  3.0784890000  -0.8228910000
H  0.1255240000  -2.1940680000  -1.3129240000
H  1.1170060000  0.1989130000  -2.0125420000