52
charge=0, multiplicity=1, basis=def2-QZVPP, mem_total=120000, AUX_BASIS_CORR=rimp2-def2-QZVPPD, SCF_ALGORITHM=GDM, xc_grid=000099000590, num_basis=2140, num_pairs=1457091, num_threads=32
C  1.2849040000  2.3309180000  0.6405530000
C  0.5698770000  1.1668770000  1.3893540000
C  -1.4118740000  1.4782200000  -0.9721030000
H  2.3597430000  2.2196730000  0.7975740000
C  -0.6878640000  1.6281470000  2.1571570000
H  -1.2377550000  0.7520650000  2.5184540000
H  -0.3533110000  2.1582030000  3.0556390000
H  -2.0849880000  1.3739130000  -1.8275370000
H  1.2719240000  0.8212350000  2.1510470000
C  -1.6420720000  2.5514130000  1.4079730000
H  -2.4262230000  2.8695600000  2.1022330000
H  -1.1142830000  3.4676030000  1.1300420000
C  -2.3170290000  1.9661850000  0.1730820000
H  -2.9788360000  1.1534390000  0.4841330000
H  -2.9755370000  2.7382440000  -0.2396290000
C  -0.3754090000  2.5501180000  -1.3944360000
H  -0.3109130000  2.5504000000  -2.4868610000
C  1.0583530000  2.4016470000  -0.8753250000
H  1.4964200000  1.5106520000  -1.3380520000
H  1.6420260000  3.2405470000  -1.2674790000
H  -0.7620630000  3.5383200000  -1.1243880000
H  1.0095500000  3.2841990000  1.1017040000
C  -0.7774860000  0.0846640000  -0.7373130000
H  -0.2836150000  -0.2340880000  -1.6699290000
Si  -2.0851100000  -1.3104570000  -0.5876740000
C  -2.6353660000  -1.6361550000  1.1800880000
H  -1.7875610000  -1.8669390000  1.8288760000
H  -3.1654160000  -0.7864300000  1.6139760000
H  -3.3127860000  -2.4944390000  1.2064410000
C  -1.4012140000  -2.9118430000  -1.3030850000
H  -2.2098350000  -3.6422430000  -1.3962990000
H  -0.9838540000  -2.7557150000  -2.3011160000
H  -0.6257580000  -3.3667450000  -0.6867010000
C  -3.5847900000  -0.8621790000  -1.6305950000
H  -3.3071020000  -0.6997970000  -2.6752780000
H  -4.3038180000  -1.6857530000  -1.6064510000
H  -4.0977490000  0.0340160000  -1.2782990000
B  0.3248360000  0.0081710000  0.3512510000
C  1.3425010000  -1.2494900000  0.3587010000
C  1.3995850000  -1.8583470000  1.7299690000
C  0.8064310000  -2.9899050000  2.0836490000
C  2.6878610000  -0.7206660000  -0.0513400000
O  3.5409930000  -0.3004160000  0.6860730000
O  2.8190810000  -0.7198810000  -1.3918790000
C  4.0358580000  -0.1622420000  -1.8959200000
H  3.9768390000  -0.2578320000  -2.9769070000
H  4.1207340000  0.8860550000  -1.6083270000
H  4.8951870000  -0.7083040000  -1.5081870000
H  1.0354970000  -1.9826510000  -0.3854920000
H  1.9717130000  -1.3010440000  2.4634000000
H  0.2354650000  -3.5870640000  1.3817170000
H  0.8794560000  -3.3653240000  3.0968780000