23
charge=0, multiplicity=2, basis=def2-QZVPP, AUX_BASIS_CORR=rimp2-def2-QZVPPD, SCF_ALGORITHM=GDM, xc_grid=000099000590, mem_total=15000, num_basis=906, num_pairs=365679, num_threads=4
C  -0.5391190000  -0.4590620000  0.0000680000
C  0.6301560000  -1.3876790000  -0.3592850000
C  1.9080010000  -0.6049660000  -0.0079890000
H  0.6003900000  -1.5937090000  -1.4337140000
H  0.5651260000  -2.3501670000  0.1541810000
C  1.5015140000  0.8870920000  -0.0372910000
H  2.7136650000  -0.8239200000  -0.7101980000
H  2.2748330000  -0.8833780000  0.9817290000
C  0.0269800000  0.9197440000  -0.4816650000
H  2.1258030000  1.4799790000  -0.7072420000
H  1.5981660000  1.3354070000  0.9547600000
C  -0.7207040000  2.1211500000  -0.0466600000
C  -0.7825340000  -0.4652130000  1.5115060000
H  0.1144650000  -0.1986580000  2.0745100000
H  -1.0947140000  -1.4604660000  1.8383240000
H  -1.5693180000  0.2409510000  1.7849370000
C  -1.8238140000  -0.8316250000  -0.7288790000
H  -2.6277650000  -0.1291090000  -0.4945980000
H  -2.1615660000  -1.8304980000  -0.4392750000
H  -1.6758730000  -0.8283740000  -1.8121890000
H  -1.5667990000  2.4929600000  -0.6102780000
H  -0.4951310000  2.6017510000  0.8978830000
H  -0.0041640000  0.8705850000  -1.5776540000