17
charge=0, multiplicity=1, basis=def2-QZVPP, AUX_BASIS_CORR=rimp2-def2-QZVPPD, SCF_ALGORITHM=GDM, xc_grid=000099000590, mem_total=7500, num_basis=753, num_pairs=226270, num_threads=2
O  -1.5033620000  -0.9827510000  -1.0267670000
C  -1.9225640000  -0.2253210000  -0.1942730000
O  -3.0619300000  -0.4524290000  0.4836370000
C  -1.2856700000  1.0778950000  0.2044350000
C  0.0975930000  1.2403010000  -0.3960030000
C  1.0858990000  0.2746350000  0.2062880000
H  0.4752300000  2.2501910000  -0.2155990000
H  0.0849480000  1.0927030000  -1.4758590000
C  3.2215300000  -0.6705490000  -0.0216760000
H  3.5410230000  -0.3670800000  0.9751260000
H  4.0445050000  -0.5970370000  -0.7272340000
H  2.8403030000  -1.6903850000  0.0198040000
O  0.9109530000  -0.3519920000  1.2178280000
H  -3.4168350000  -1.2986030000  0.1770260000
O  2.2109690000  0.2155530000  -0.5140120000
H  -1.9495430000  1.8813150000  -0.1251240000
H  -1.2534020000  1.1200910000  1.2937550000