20
charge=0, multiplicity=1, basis=def2-QZVPP, AUX_BASIS_CORR=rimp2-def2-QZVPPD, SCF_ALGORITHM=GDM, xc_grid=000099000590, mem_total=15000, num_basis=816, num_pairs=311180, num_threads=4
H  1.1791370000  -1.2239090000  -1.6827210000
C  0.7785210000  -1.2053320000  -0.6663510000
N  1.2765380000  0.0000100000  -0.0000200000
H  1.1791950000  -2.0759100000  -0.1415630000
C  -0.7785220000  -1.2053540000  -0.6663100000
C  0.7784960000  1.1797450000  -0.7106950000
C  0.7785420000  0.0256120000  1.3770050000
H  -1.1791890000  -1.2239640000  -1.6826590000
H  -1.1791430000  -2.0759320000  -0.1414840000
N  -1.2765380000  -0.0000140000  0.0000230000
H  1.1791330000  2.0692310000  -0.2186040000
H  1.1791340000  1.1605660000  -1.7270450000
C  -0.7785420000  1.1797220000  -0.7106840000
C  -0.7784950000  0.0256150000  1.3770310000
H  -1.1791990000  2.0692070000  -0.2186080000
H  -1.1791930000  1.1605070000  -1.7270280000
H  -1.1791260000  -0.8452860000  1.9013190000
H  -1.1791380000  0.9154000000  1.8685710000
H  1.1792060000  0.9153830000  1.8685530000
H  1.1791860000  -0.8453030000  1.9012590000