20
charge=0, multiplicity=2, basis=def2-QZVPP, AUX_BASIS_CORR=rimp2-def2-QZVPPD, SCF_ALGORITHM=GDM, xc_grid=000099000590, mem_total=7500, num_basis=789, num_pairs=277551, num_threads=2
C  -0.8826600000  -0.6215990000  0.5334680000
C  -1.1001490000  0.8502650000  0.7332530000
C  -0.3150530000  1.6265120000  -0.3284490000
H  -0.7476010000  1.1487110000  1.7245330000
H  -2.1677940000  1.1017160000  0.6840250000
C  1.1151170000  1.0980560000  -0.3048240000
H  -0.3509380000  2.7041520000  -0.1505720000
H  -0.7558930000  1.4535580000  -1.3157950000
C  1.1345540000  -0.4093580000  -0.3790650000
H  1.6141610000  1.4168990000  0.6160470000
H  1.6931630000  1.5099500000  -1.1380680000
C  2.0243570000  -1.1660380000  0.3261810000
H  2.1484800000  -2.2236620000  0.1297480000
H  2.5747480000  -0.7491200000  1.1624700000
H  0.7352730000  -0.8349040000  -1.2964680000
C  -1.6968320000  -1.3349380000  -0.5003570000
H  -1.7558430000  -0.7712310000  -1.4355070000
H  -2.7276820000  -1.4876760000  -0.1530620000
H  -1.2842250000  -2.3211080000  -0.7269410000
H  -0.6518580000  -1.2046880000  1.4183490000