29
charge=0, multiplicity=2, basis=def2-QZVPP, AUX_BASIS_CORR=rimp2-def2-QZVPPD, SCF_ALGORITHM=GDM, xc_grid=000099000590, mem_total=30000, num_basis=1315, num_pairs=499559, num_threads=8
C  -4.5625430000  -0.7568420000  -0.0047800000
C  -4.5905490000  0.6381230000  -0.0902360000
C  -3.4185800000  1.3622330000  -0.1834540000
C  -2.1719590000  0.7268920000  -0.2099350000
C  -2.1521250000  -0.6707340000  -0.1269420000
C  -3.3214380000  -1.3980760000  -0.0171160000
S  -0.6981980000  1.6692540000  -0.3612230000
H  -5.5435930000  1.1557580000  -0.0692100000
H  -3.4572220000  2.4433680000  -0.2331480000
H  -1.2027570000  -1.1910610000  -0.1388450000
H  -3.2774790000  -2.4792850000  0.0588580000
H  0.1983050000  0.7244290000  0.5398850000
O  0.9420930000  0.0754410000  1.2622810000
C  2.1156330000  -0.0596720000  0.7326940000
C  2.2914730000  -0.3266390000  -0.6525920000
C  3.5456160000  -0.4743320000  -1.1846560000
C  4.6892750000  -0.3753350000  -0.3708240000
C  4.5259640000  -0.1189830000  1.0062760000
C  3.2776590000  0.0465930000  1.5406240000
H  3.1396650000  0.2596520000  2.5928960000
H  3.6647580000  -0.6787220000  -2.2428680000
H  1.4125490000  -0.4026960000  -1.2787860000
H  5.4037540000  -0.0468740000  1.6389270000
N  -5.7381300000  -1.4835140000  0.1423850000
H  -6.5831840000  -1.0331050000  -0.1707730000
H  -5.6940130000  -2.4585750000  -0.1072760000
N  5.9378950000  -0.5582820000  -0.8985080000
H  6.0579540000  -0.5566800000  -1.8971330000
H  6.7467730000  -0.3146170000  -0.3526970000