21
charge=0, multiplicity=1, basis=def2-QZVPP, AUX_BASIS_CORR=rimp2-def2-QZVPPD, SCF_ALGORITHM=GDM, xc_grid=000099000590, mem_total=15000, num_basis=954, num_pairs=329989, num_threads=4
C  2.5849570000  0.6424210000  -0.0000050000
C  1.1016770000  0.3954380000  -0.0000020000
C  0.5844870000  -0.8943630000  -0.0000200000
C  0.2319310000  1.4850220000  0.0000170000
C  -0.7866260000  -1.0993570000  -0.0000200000
H  1.2648690000  -1.7339210000  -0.0000330000
C  -1.1371130000  1.2970310000  0.0000150000
H  0.6298740000  2.4937940000  0.0000320000
C  -1.6250820000  -0.0000430000  -0.0000030000
H  -1.2101270000  -2.0935600000  -0.0000330000
H  -1.8269250000  2.1286020000  0.0000290000
O  3.2845410000  -0.5721360000  0.0000100000
C  4.6821320000  -0.3988350000  0.0000130000
H  5.0146840000  0.1461860000  0.8921710000
H  5.1306100000  -1.3905210000  0.0000200000
H  5.0146900000  0.1461770000  -0.8921470000
N  -3.0811460000  -0.2116260000  -0.0000030000
O  -3.4865600000  -1.3579080000  -0.0000070000
O  -3.7952460000  0.7731160000  0.0000020000
H  2.8551400000  1.2380710000  -0.8847480000
H  2.8551410000  1.2380940000  0.8847210000