17
charge=0, multiplicity=2, basis=def2-QZVPP, AUX_BASIS_CORR=rimp2-def2-QZVPPD, SCF_ALGORITHM=GDM, xc_grid=000099000590, mem_total=7500, num_basis=672, num_pairs=192078, num_threads=2
C  1.7308840000  0.4330510000  -0.2573620000
H  1.6929480000  0.5805020000  -1.3419590000
H  1.8999990000  1.4237560000  0.1788890000
C  0.3867570000  -0.1054400000  0.2197660000
H  0.2076540000  -1.0894890000  -0.2256030000
C  -2.1238950000  0.2242630000  0.3012530000
H  -2.1590860000  0.0290570000  1.3901140000
O  -2.4825600000  -0.9338980000  -0.3243020000
H  0.4230800000  -0.2602640000  1.3053070000
H  -2.9537020000  0.9383510000  0.1442610000
C  -0.7846680000  0.8085980000  -0.1201240000
C  2.8958270000  -0.4854470000  0.0930050000
H  -0.6564310000  1.7820690000  0.3668440000
H  -0.8112440000  0.9947670000  -1.1985540000
H  3.8459730000  -0.0806840000  -0.2616070000
H  2.7657080000  -1.4730760000  -0.3570110000
H  2.9761580000  -0.6239470000  1.1745120000