20
charge=1, multiplicity=1, basis=def2-QZVPP, AUX_BASIS_CORR=rimp2-def2-QZVPPD, SCF_ALGORITHM=GDM, xc_grid=000099000590, mem_total=15000, num_basis=897, num_pairs=302975, num_threads=4
C  -3.8011590000  0.4558860000  -0.0000360000
C  -2.5307650000  -0.1013210000  -0.0000100000
C  -3.6839130000  -0.8723610000  -0.0000500000
H  -4.4366960000  1.3272870000  -0.0000070000
H  -4.1576150000  -1.8412970000  -0.0000820000
C  -1.1429750000  0.0253340000  -0.0000010000
C  -0.5391680000  1.3062740000  0.0000260000
C  -0.3250220000  -1.1224810000  -0.0000200000
C  0.8185730000  1.4258510000  0.0000290000
H  -1.1607150000  2.1933900000  0.0000430000
C  1.0413020000  -1.0105280000  -0.0000170000
H  -0.7811150000  -2.1051880000  -0.0000410000
C  1.6271440000  0.2695170000  0.0000100000
H  1.3080280000  2.3904010000  0.0000490000
H  1.6546320000  -1.8992000000  -0.0000360000
O  2.9266850000  0.4878520000  0.0000140000
C  3.8494570000  -0.6074180000  0.0000400000
H  4.8350470000  -0.1529040000  0.0000960000
H  3.7220120000  -1.2139230000  0.8979420000
H  3.7220990000  -1.2138900000  -0.8978960000