30
charge=0, multiplicity=2, basis=def2-QZVPP, AUX_BASIS_CORR=rimp2-def2-QZVPPD, SCF_ALGORITHM=GDM, xc_grid=000099000590, mem_total=60000, num_basis=1453, num_pairs=772122, num_threads=16
C  0.6829850000  1.9542100000  1.1341770000
C  -0.6955850000  2.0246820000  1.1061730000
C  -1.4044480000  1.9379910000  -0.1044980000
C  -0.6661780000  1.7946130000  -1.2922990000
C  0.7128610000  1.7197850000  -1.2745490000
C  1.3782820000  1.7898260000  -0.0575670000
H  1.2211710000  2.0119360000  2.0707970000
H  1.2712530000  1.5876760000  -2.1913190000
C  0.1553920000  -1.5654160000  0.7523720000
C  0.1200120000  -1.6460200000  -0.6310490000
N  1.1460950000  -1.9402570000  -1.4033020000
C  2.2916440000  -2.1718990000  -0.7582220000
C  2.4347830000  -2.1162620000  0.6271100000
C  1.3388310000  -1.8031620000  1.4200710000
C  -1.1790090000  -1.1481380000  1.2559100000
C  -1.2605050000  -1.2898440000  -1.1032940000
H  3.1470260000  -2.4093950000  -1.3811680000
H  3.4037250000  -2.3079190000  1.0689940000
H  1.4028180000  -1.7380480000  2.4989660000
O  -1.7077810000  -1.2020760000  -2.2051010000
O  -1.5402840000  -0.9306370000  2.3760720000
N  -1.9679540000  -1.0238820000  0.0941090000
O  -3.2149720000  -0.5967420000  0.1102150000
H  -1.1908800000  1.7096310000  -2.2360780000
H  -1.2433500000  2.1216190000  2.0356230000
C  -2.8538330000  1.9101200000  -0.1185010000
H  -3.3545510000  2.3256170000  0.7522840000
H  -3.3338220000  2.1480840000  -1.0642490000
H  -3.1534380000  0.6225950000  0.0031270000
Cl  3.1150570000  1.6570520000  -0.0221820000