11
charge=0, multiplicity=2, basis=def2-QZVPP, AUX_BASIS_CORR=rimp2-def2-QZVPPD, SCF_ALGORITHM=GDM, xc_grid=000099000590, mem_total=3750, num_basis=492, num_pairs=115904, num_threads=1
C  -0.0000010000  -1.3895310000  0.0000000000
C  -1.2202700000  -0.7676390000  0.0000000000
C  1.2202700000  -0.7676390000  0.0000000000
C  -1.2075170000  0.6283900000  0.0000000000
C  1.2075180000  0.6283880000  0.0000000000
C  0.0000000000  1.3165990000  0.0000000000
H  2.1527200000  -1.3190390000  0.0000000000
H  2.1444640000  1.1734870000  0.0000000000
H  -2.1527210000  -1.3190360000  0.0000000000
H  -2.1444640000  1.1734880000  0.0000000000
H  0.0000010000  2.3996870000  0.0000000000