27
charge=-1, multiplicity=1, basis=def2-QZVPP, mem_total=30000, AUX_BASIS_CORR=rimp2-def2-QZVPPD, SCF_ALGORITHM=GDM, xc_grid=000099000590, num_basis=1188, num_pairs=497889, num_threads=8
C  -1.0373180000  -0.9146620000  -0.3389610000
C  -1.5345960000  0.3612630000  -0.0828400000
C  -2.8901730000  0.5181210000  0.1937770000
C  -3.7405320000  -0.5768350000  0.2101870000
C  -3.2391890000  -1.8464050000  -0.0496700000
C  -1.8870900000  -2.0112950000  -0.3218990000
C  -0.6700570000  1.5972330000  -0.1308670000
O  -1.1424380000  2.6586480000  0.2260860000
C  0.7161730000  1.4872700000  -0.6947980000
C  1.6968350000  0.6761280000  0.1776750000
C  1.6113010000  0.4467990000  1.4956250000
C  2.8171100000  0.1804680000  -0.7269940000
O  3.9178580000  -0.4697540000  -0.1345000000
C  3.5902040000  -1.7083260000  0.4534670000
H  2.3926840000  -0.4912970000  -1.5054120000
H  3.2517080000  1.0298020000  -1.2720970000
H  0.7044480000  0.9340140000  1.9044710000
H  4.5257440000  -2.1480200000  0.8089320000
H  2.8936490000  -1.5559970000  1.2814110000
H  3.1456640000  -2.3857600000  -0.2968290000
H  -3.2544450000  1.5173240000  0.3974360000
H  -4.7942480000  -0.4422330000  0.4280660000
H  -3.8995060000  -2.7066420000  -0.0324110000
H  -1.4873390000  -3.0015610000  -0.5076680000
H  0.0242570000  -1.0463330000  -0.4984250000
H  1.0776630000  2.5075950000  -0.8597010000
H  0.6203580000  1.0193960000  -1.6886710000