13
charge=0, multiplicity=1, basis=def2-QZVPP, AUX_BASIS_CORR=rimp2-def2-QZVPPD, SCF_ALGORITHM=GDM, xc_grid=000099000590, mem_total=3750, num_basis=579, num_pairs=141032, num_threads=1
C  1.8536570000  0.1334990000  0.0000010000
C  0.8608770000  0.9798820000  0.0000050000
H  1.0378100000  2.0487730000  0.0000050000
C  2.8474030000  -0.6954070000  0.0000030000
C  -0.5638280000  0.5851940000  0.0000120000
O  -1.4707340000  1.3776160000  0.0000040000
O  -0.7403950000  -0.7421940000  -0.0000040000
C  -2.0990800000  -1.1861320000  -0.0000150000
H  -2.6181200000  -0.8246050000  -0.8876060000
H  -2.0511990000  -2.2717190000  -0.0000210000
H  -2.6181300000  -0.8246150000  0.8875750000
H  3.2722400000  -1.0567200000  -0.9295420000
H  3.2722510000  -1.0567050000  0.9295490000