13
charge=0, multiplicity=2, basis=def2-QZVPP, AUX_BASIS_CORR=rimp2-def2-QZVPPD, SCF_ALGORITHM=GDM, xc_grid=000099000590, mem_total=3750, num_basis=511, num_pairs=118865, num_threads=1
Si  0.0000270000  -0.0000380000  -0.4268520000
C  1.6577470000  -0.6597090000  0.1773370000
H  1.6873730000  -0.6713060000  1.2727010000
H  1.8330020000  -1.6793580000  -0.1715070000
H  2.4856790000  -0.0394380000  -0.1717860000
C  -0.2575490000  1.7655300000  0.1770310000
H  -0.2622700000  1.7971800000  1.2723900000
H  0.5378400000  2.4270800000  -0.1719640000
H  -1.2087090000  2.1723190000  -0.1721230000
C  -1.4002320000  -1.1057740000  0.1771890000
H  -2.3708260000  -0.7478670000  -0.1720120000
H  -1.2768660000  -2.1329930000  -0.1716570000
H  -1.4253980000  -1.1253690000  1.2725510000