28
charge=0, multiplicity=1, basis=def2-QZVPP, mem_total=30000, AUX_BASIS_CORR=rimp2-def2-QZVPPD, SCF_ALGORITHM=GDM, xc_grid=000099000590, num_basis=1299, num_pairs=627212, num_threads=8
C  1.1832650000  0.5453940000  -1.2790920000
C  0.9399910000  0.9757220000  0.0281730000
C  1.9837090000  0.9654420000  0.9562710000
C  3.2449870000  0.5285120000  0.5916390000
C  3.4815330000  0.1083930000  -0.7094480000
C  2.4511870000  0.1240400000  -1.6404140000
C  -0.3571330000  1.4813280000  0.4868110000
N  -1.4042530000  1.6987260000  -0.3114450000
O  -1.7230400000  0.7194970000  -1.1265370000
C  -2.5404180000  2.4740150000  0.1649710000
C  -2.0377410000  -0.6937530000  0.0041050000
C  -1.4064870000  -0.4077290000  1.2223970000
H  -3.1038570000  -0.7091070000  -0.1665180000
H  -0.3226700000  2.1255170000  1.3584840000
H  -1.8803270000  -0.0082590000  2.1063100000
C  -0.2806790000  -1.3248420000  1.3677490000
C  -1.2144830000  -1.7660390000  -0.6466070000
H  -3.1867290000  1.8436720000  0.7840520000
H  -2.1899610000  3.3298700000  0.7385000000
H  -3.0997820000  2.8168030000  -0.7019960000
H  1.7989200000  1.2863180000  1.9747970000
H  4.0411440000  0.5111930000  1.3250170000
H  4.4666980000  -0.2381160000  -0.9967550000
H  2.6313270000  -0.2093390000  -2.6547380000
H  0.3790980000  0.5322700000  -2.0003050000
O  -1.3898640000  -2.3171220000  -1.6835640000
O  -0.1525760000  -2.0485610000  0.1756640000
O  0.4666700000  -1.5081640000  2.2761800000