12
charge=0, multiplicity=1, basis=def2-QZVPP, AUX_BASIS_CORR=rimp2-def2-QZVPPD, SCF_ALGORITHM=GDM, xc_grid=000099000590, mem_total=3750, num_basis=589, num_pairs=158860, num_threads=1
C  -1.8784990000  -0.7658020000  0.0000150000
C  -1.8784990000  0.7658020000  0.0000530000
C  -0.4226670000  -1.1841570000  0.0000340000
N  0.3244510000  0.0000000000  -0.0000010000
C  -0.4226670000  1.1841570000  -0.0000210000
O  0.0338610000  2.2879100000  -0.0000190000
O  0.0338610000  -2.2879100000  0.0000070000
Cl  2.0134850000  0.0000000000  -0.0000320000
H  -2.3570310000  -1.1993510000  -0.8782270000
H  -2.3570660000  -1.1994020000  0.8782110000
H  -2.3569980000  1.1993500000  0.8783130000
H  -2.3570990000  1.1994030000  -0.8781250000