21
charge=0, multiplicity=2, basis=def2-QZVPP, AUX_BASIS_CORR=rimp2-def2-QZVPPD, SCF_ALGORITHM=GDM, xc_grid=000099000590, mem_total=15000, num_basis=846, num_pairs=303576, num_threads=4
C  -0.0328030000  -1.1796870000  -0.3080290000
C  -0.5827510000  0.2234760000  -0.2405870000
C  1.3629410000  -1.2979870000  0.2983530000
C  2.2539430000  -0.1543480000  -0.1757250000
C  1.6755670000  1.1902430000  0.2606360000
C  0.1926810000  1.2712100000  0.0259590000
C  -2.9098260000  -0.2314970000  0.5810930000
C  -2.0632130000  0.3689600000  -0.4882610000
H  -0.0159370000  -1.4995350000  -1.3583560000
H  -0.7262430000  -1.8597360000  0.1964010000
H  1.8036430000  -2.2649750000  0.0432410000
H  1.2861190000  -1.2630270000  1.3907000000
H  2.3188410000  -0.1820990000  -1.2690240000
H  3.2715210000  -0.2704420000  0.2054680000
H  2.1741860000  2.0068020000  -0.2706120000
H  1.8835870000  1.3591100000  1.3249320000
H  -3.9214240000  -0.5571250000  0.3750770000
H  -2.5741780000  -0.2222620000  1.6107860000
H  -2.3002630000  1.4382660000  -0.5953550000
H  -2.3192570000  -0.0855550000  -1.4537470000
H  -0.2598300000  2.2583510000  0.0798490000