37
charge=0, multiplicity=2, basis=def2-QZVPP, AUX_BASIS_CORR=rimp2-def2-QZVPPD, SCF_ALGORITHM=GDM, xc_grid=000099000590, mem_total=60000, num_basis=1609, num_pairs=762040, num_threads=16
N  -2.8596810000  0.4051200000  0.0872500000
C  -4.1007470000  0.0211630000  -0.3974450000
C  -2.2303100000  1.6414620000  0.2284550000
O  -1.0452210000  1.7079930000  0.4356550000
O  -4.9653250000  0.8410550000  -0.6033810000
C  -3.1234460000  2.8495960000  0.1354320000
C  -4.2806330000  -1.4541420000  -0.6132280000
F  -1.8243970000  -0.7829980000  0.1350440000
C  -0.4004920000  -2.3080910000  0.1769550000
H  -1.1645060000  -3.0744290000  0.1078260000
C  0.2164250000  -2.0676470000  1.5082850000
C  0.3753090000  -1.9870530000  -1.0496040000
C  1.0093090000  -0.7588830000  1.5782280000
C  1.9412350000  -0.6359040000  0.3748430000
C  1.1569580000  -0.6753890000  -0.9335940000
C  4.3342530000  0.4703390000  -0.4537570000
C  5.3463310000  1.5803520000  -0.5784050000
O  4.4694380000  -0.6032110000  -0.9826210000
H  0.8968870000  -2.9108320000  1.7161370000
H  -0.5450830000  -2.0973310000  2.2907690000
H  1.0868150000  -2.8118110000  -1.2232320000
H  -0.2805330000  -1.9701040000  -1.9232140000
H  1.5832050000  -0.7266490000  2.5066120000
H  0.3146340000  0.0828610000  1.5795990000
H  2.6804770000  -1.4409850000  0.3821230000
H  0.4641500000  0.1676690000  -0.9505540000
H  1.8387330000  -0.5796950000  -1.7792930000
H  5.2919890000  1.9792610000  -1.5936200000
H  6.3434380000  1.1648120000  -0.4315300000
H  5.1681290000  2.3887510000  0.1295950000
H  -3.9550760000  2.7780340000  0.8351480000
H  -3.5602990000  2.9252420000  -0.8599780000
H  -2.5068750000  3.7191960000  0.3523390000
H  -3.5885700000  -1.8112680000  -1.3765230000
H  -4.0678620000  -2.0045580000  0.3032030000
H  -5.3072480000  -1.6228340000  -0.9286640000
S  2.9130400000  0.9021440000  0.5239310000