23
charge=0, multiplicity=2, basis=def2-QZVPP, AUX_BASIS_CORR=rimp2-def2-QZVPPD, SCF_ALGORITHM=GDM, xc_grid=000099000590, mem_total=15000, num_basis=987, num_pairs=359684, num_threads=4
C  3.5623340000  -1.3578690000  0.6744720000
N  2.7532180000  -0.5677720000  -0.2280740000
H  3.7558890000  -0.8605310000  1.6346280000
H  4.5156440000  -1.5879320000  0.1940450000
H  3.0603090000  -2.3093920000  0.8630860000
C  2.3528470000  0.5599630000  0.1612860000
C  1.4821610000  1.4415560000  -0.6961330000
C  0.1330760000  1.6641900000  -0.0833800000
C  -0.8916050000  0.6957130000  -0.0525060000
C  -0.7344440000  -0.5991800000  -0.6076720000
C  -2.1398650000  1.0038080000  0.5445290000
C  -3.1632910000  0.0813390000  0.5786010000
C  -2.9873420000  -1.1856520000  0.0224780000
C  -1.7680030000  -1.5136260000  -0.5666180000
H  0.2113470000  -0.8787710000  -1.0533830000
H  -1.6256780000  -2.4983780000  -0.9960140000
H  -2.2817800000  1.9881260000  0.9766520000
H  -4.1086580000  0.3427890000  1.0391320000
H  -3.7924020000  -1.9095370000  0.0496530000
H  1.4036670000  0.9739880000  -1.6806950000
H  1.9832860000  2.4049370000  -0.8253880000
H  -0.0674490000  2.6229320000  0.3817600000
H  2.5980880000  0.9447080000  1.1626990000