41
charge=0, multiplicity=2, basis=def2-QZVPP, AUX_BASIS_CORR=rimp2-def2-QZVPPD, SCF_ALGORITHM=GDM, xc_grid=000099000590, mem_total=60000, num_basis=1783, num_pairs=1018605, num_threads=16
C  -1.5949250000  -1.8196110000  0.0869980000
C  -1.3073350000  -2.8563530000  -0.9882590000
S  -3.2942140000  -1.3424710000  0.1626110000
C  -3.3752450000  -0.2597620000  1.6131750000
H  -2.6798250000  0.5732760000  1.5204660000
H  -3.1861800000  -0.8098420000  2.5329960000
H  -4.3913870000  0.1317220000  1.6402670000
C  -0.8503340000  -1.9698740000  1.3797760000
H  -0.8178560000  -1.0384770000  1.9457890000
H  0.1809250000  -2.2712320000  1.1937530000
H  -1.3184470000  -2.7368530000  2.0087590000
C  -0.0385280000  -2.2105340000  -1.5519040000
H  -2.1040980000  -2.8620550000  -1.7358090000
H  -1.1980450000  -3.8755740000  -0.6055390000
C  -0.3773340000  -0.7682150000  -1.2143500000
H  0.1393170000  -2.3881250000  -2.6155850000
H  0.8432890000  -2.5469180000  -1.0090060000
C  0.4717650000  0.1823310000  -0.6532220000
H  -1.2098670000  -0.3835680000  -1.7947160000
C  0.0151020000  1.5619520000  -0.4641770000
C  1.8146410000  -0.1930360000  -0.1513850000
C  2.1754270000  0.0390580000  1.1793030000
C  2.7573000000  -0.7877830000  -0.9920760000
C  3.4236190000  -0.3278040000  1.6560640000
C  4.3472260000  -0.9268970000  0.8082420000
C  4.0102580000  -1.1516020000  -0.5188900000
H  2.5062760000  -0.9509470000  -2.0331260000
H  1.4617920000  0.5098580000  1.8447560000
H  3.6776220000  -0.1459240000  2.6936870000
H  5.3244830000  -1.2112260000  1.1792340000
H  4.7274680000  -1.6064310000  -1.1918900000
C  0.9272970000  2.6023520000  -0.2257520000
C  -1.3460930000  1.9027160000  -0.5357320000
C  -1.7679310000  3.2119670000  -0.3773070000
C  -0.8490140000  4.2265930000  -0.1397260000
C  0.5017450000  3.9106560000  -0.0681050000
H  1.9852180000  2.3805090000  -0.1792020000
H  1.2326460000  4.6914900000  0.1067820000
H  -2.0848250000  1.1316250000  -0.7098010000
H  -2.8257200000  3.4414490000  -0.4356190000
H  -1.1811940000  5.2498450000  -0.0140210000