50
charge=-1, multiplicity=1, basis=def2-QZVPP, mem_total=120000, AUX_BASIS_CORR=rimp2-def2-QZVPPD, SCF_ALGORITHM=GDM, xc_grid=000099000590, num_basis=2337, num_pairs=1368768, num_threads=32
N  3.2169060000  -0.0261180000  -0.7179330000
C  2.5350540000  1.1612110000  -0.3604810000
C  1.5318880000  1.0884070000  0.6088420000
N  1.2411360000  -0.1476660000  1.1599840000
C  1.3498740000  -1.2523440000  0.2474370000
C  2.7361090000  -1.2449520000  -0.3879440000
N  3.4094840000  -2.3122900000  -0.6915720000
C  2.9504470000  -3.5474870000  -0.3119270000
C  1.1232020000  -2.5498590000  1.0323150000
N  1.8529190000  -3.6089520000  0.5620670000
C  2.8623170000  2.3921210000  -0.9157310000
C  2.2199600000  3.5603370000  -0.5228950000
C  1.2210560000  3.4872790000  0.4558410000
C  0.8900480000  2.2568310000  1.0046550000
O  3.4757200000  -4.5871210000  -0.6501120000
O  0.3259750000  -2.6586900000  1.9323240000
O  0.5020370000  -1.2320450000  -0.8439670000
O  -1.1267040000  -1.1252270000  -0.0276260000
C  4.4524850000  0.0724350000  -1.4790510000
H  4.2469170000  0.4065500000  -2.4991290000
H  4.9062410000  -0.9123090000  -1.5117780000
H  5.1241620000  0.7834500000  -0.9962140000
C  2.5933650000  4.8752380000  -1.1530610000
H  3.3921580000  4.7440830000  -1.8849010000
H  1.7429160000  5.3328790000  -1.6678710000
H  2.9391840000  5.5986950000  -0.4081240000
C  0.4881480000  4.7231920000  0.9034450000
H  1.1714850000  5.4673270000  1.3244770000
H  -0.0332500000  5.2041930000  0.0701910000
H  -0.2520440000  4.4762820000  1.6644580000
H  3.6301180000  2.4529110000  -1.6755090000
H  0.0971590000  2.1718970000  1.7397710000
C  -2.6823660000  -0.8683900000  1.1634140000
C  -3.7370840000  -1.1534230000  0.2809200000
C  -4.4238030000  -0.1443600000  -0.3689930000
C  -4.0849360000  1.2115070000  -0.0813880000
C  -3.1181000000  1.5313910000  0.8154710000
C  -2.3877420000  0.5110680000  1.5442880000
H  1.6355130000  -4.5240050000  0.9310380000
H  0.3926530000  -0.1786300000  1.7213090000
H  -3.9868320000  -2.1870080000  0.0787580000
H  -4.6308220000  1.9864330000  -0.6070330000
H  -2.8755410000  2.5635240000  1.0391920000
C  -5.4804850000  -0.4091360000  -1.3307560000
O  -6.1298140000  0.4229160000  -1.9315270000
O  -5.7252320000  -1.7339660000  -1.5357310000
H  -6.4331070000  -1.7650750000  -2.1909190000
O  -1.5303440000  0.7881510000  2.3989900000
H  -2.2871980000  -1.6404900000  1.8087110000
H  -1.3925510000  -0.5140560000  -0.7294660000