19
charge=0, multiplicity=1, basis=def2-QZVPP, mem_total=7500, AUX_BASIS_CORR=rimp2-def2-QZVPPD, SCF_ALGORITHM=GDM, xc_grid=000099000590, num_basis=813, num_pairs=275180, num_threads=2
C  -2.1769000000  1.0068750000  -0.0000110000
C  -0.8190070000  1.2945790000  -0.0000190000
C  0.1324850000  0.2768820000  -0.0000060000
C  -0.3172250000  -1.0438630000  0.0000150000
C  -1.6726410000  -1.3347200000  0.0000230000
C  -2.6107340000  -0.3104850000  0.0000100000
H  -2.8972580000  1.8163920000  -0.0000220000
H  -0.4890600000  2.3275850000  -0.0000360000
H  0.3958450000  -1.8604470000  0.0000260000
H  -1.9987630000  -2.3681430000  0.0000400000
H  -3.6695250000  -0.5387520000  0.0000160000
C  1.5782430000  0.6241280000  -0.0000140000
C  2.5844610000  -0.2137270000  0.7480570000
C  2.5844600000  -0.2137550000  -0.7480560000
H  1.7676750000  1.6910370000  -0.0000350000
H  2.2111310000  -1.0915740000  1.2601370000
H  3.3849860000  0.3000410000  1.2644130000
H  2.2111300000  -1.0916210000  -1.2601030000
H  3.3849840000  0.2999940000  -1.2644320000