7
charge=0, multiplicity=1, basis=def2-QZVPP, AUX_BASIS_CORR=rimp2-def2-QZVPPD, SCF_ALGORITHM=GDM, xc_grid=000099000590, mem_total=3750, num_basis=291, num_pairs=41445, num_threads=1
C  1.4159080000  0.0000000000  0.0000000000
C  0.2193630000  0.0000040000  -0.0000050000
C  -1.2364110000  -0.0000010000  0.0000020000
H  -1.6238620000  0.8722720000  0.5296650000
H  -1.6238640000  0.0225610000  -1.0202400000
H  -1.6238560000  -0.8948410000  0.4905830000
H  2.4784210000  -0.0000090000  0.0000110000