28
charge=0, multiplicity=1, basis=def2-QZVPP, mem_total=30000, AUX_BASIS_CORR=rimp2-def2-QZVPPD, SCF_ALGORITHM=GDM, xc_grid=000099000590, num_basis=1164, num_pairs=532399, num_threads=8
C  -2.7987930000  0.8421710000  0.4098920000
C  -1.7342430000  1.4948730000  -0.4901640000
C  -0.5316860000  0.6173440000  -0.4943910000
C  -0.4715160000  -0.6280390000  -0.0268270000
C  -1.6033610000  -1.4165640000  0.5336240000
C  -2.9079360000  -0.6747660000  0.1917870000
H  -2.1149550000  1.6229270000  -1.5107020000
H  -1.4885820000  2.4992010000  -0.1301700000
H  -2.5339490000  1.0289010000  1.4562590000
H  -3.7717890000  1.3107980000  0.2437840000
H  -1.6227200000  -2.4347210000  0.1337200000
H  -1.4906150000  -1.5187990000  1.6201200000
H  -3.1551470000  -0.8640440000  -0.8584190000
H  -3.7336980000  -1.0743120000  0.7853240000
C  2.8059810000  0.6123960000  0.7320070000
C  1.8469540000  1.6083630000  0.0590710000
C  1.0334400000  -0.7403340000  -0.2176560000
C  1.9431740000  -0.6266560000  1.0093170000
H  3.2806270000  1.0149530000  1.6293700000
H  2.3747750000  2.3783860000  -0.5062250000
H  1.2450290000  2.1179270000  0.8180170000
H  2.5271720000  -1.5375330000  1.1407730000
H  1.3427720000  -0.4763370000  1.9100060000
H  3.6033690000  0.3445700000  0.0325260000
O  1.5191030000  -1.7781400000  -1.0474470000
H  0.9730030000  -1.8151930000  -1.8382250000
C  0.9525580000  0.7205040000  -0.8177460000
H  1.2044550000  0.7726460000  -1.8800560000