52
charge=0, multiplicity=1, basis=def2-QZVPP, mem_total=120000, AUX_BASIS_CORR=rimp2-def2-QZVPPD, SCF_ALGORITHM=GDM, xc_grid=000099000590, num_basis=2181, num_pairs=1361576, num_threads=32
C  0.1357740000  -2.3582840000  -0.4499930000
H  -0.2274500000  -2.9447530000  -1.3149590000
C  1.2549320000  -1.4416910000  -0.8855630000
C  -0.2312890000  0.5231740000  -0.6129490000
H  -0.4102390000  1.0936560000  0.2974000000
H  -0.3445000000  1.2123950000  -1.4502930000
C  -1.3316390000  -0.5371860000  -0.7103170000
H  -1.3820670000  -0.9033980000  -1.7545480000
N  -0.9592880000  -1.6400070000  0.1650890000
C  2.2827510000  0.6524180000  -0.1400170000
C  2.4230610000  -2.0074840000  -1.3611530000
H  2.9235820000  -1.4927210000  -2.1634890000
H  2.5161130000  -3.0905970000  -1.3929650000
C  3.4151230000  -0.0368380000  0.3377660000
C  4.0417200000  -1.1860720000  -0.1213600000
C  1.1661230000  -0.0649620000  -0.6329710000
H  4.4415400000  -1.1842320000  -1.1198330000
H  3.7521240000  0.3064340000  1.3157120000
C  4.8293120000  -2.0443130000  0.8360860000
H  4.7818440000  -3.0946990000  0.5413540000
H  5.8877800000  -1.7628540000  0.8439680000
H  4.4444200000  -1.9676480000  1.8542250000
C  -2.0627910000  -2.5151420000  0.5049220000
H  -2.5434930000  -2.9308750000  -0.4000970000
H  -1.6676110000  -3.3576730000  1.0770460000
C  -2.6842320000  0.0584050000  -0.3761170000
C  -3.5078510000  -0.4978980000  0.6015380000
C  -3.0792440000  -1.7460700000  1.3262360000
H  -2.6287380000  -1.4830960000  2.2882130000
H  -3.9512090000  -2.3712570000  1.5343660000
H  0.5417140000  -3.0753600000  0.2723340000
C  -4.7369840000  0.0977790000  0.8795320000
H  -5.3738920000  -0.3429810000  1.6393440000
C  -3.1244860000  1.1845680000  -1.0718620000
H  -2.5015730000  1.6090280000  -1.8507090000
C  -5.1574630000  1.2268220000  0.1990840000
H  -6.1167140000  1.6752000000  0.4280520000
C  -4.3464360000  1.7698740000  -0.7898600000
H  -4.6680650000  2.6447090000  -1.3419950000
C  2.2146290000  2.1419570000  0.3002560000
C  1.6746140000  2.2599750000  1.7349850000
H  0.6698090000  1.8478360000  1.8310360000
H  2.3180520000  1.7283890000  2.4393220000
H  1.6391820000  3.3094240000  2.0406270000
C  1.3785410000  3.0224890000  -0.6477270000
H  1.5764540000  2.7744550000  -1.6932730000
H  0.3090150000  2.9512660000  -0.4727360000
H  1.6558230000  4.0683520000  -0.4986890000
C  3.6313120000  2.7504200000  0.2676790000
H  4.0547040000  2.6913280000  -0.7376440000
H  4.3219230000  2.2545680000  0.9481660000
H  3.5836180000  3.8035000000  0.5552830000