22
charge=-1, multiplicity=1, basis=def2-QZVPP, mem_total=15000, AUX_BASIS_CORR=rimp2-def2-QZVPPD, SCF_ALGORITHM=GDM, xc_grid=000099000590, num_basis=1011, num_pairs=412469, num_threads=4
C  0.9253590000  -0.0177110000  0.3141550000
C  0.0244760000  -1.2429760000  -0.0028750000
C  -1.3590780000  -0.9934470000  0.5739920000
H  0.4616680000  -2.1199300000  0.4712430000
H  -0.0297830000  -1.4574930000  -1.0817520000
C  -1.9888070000  0.2499310000  -0.0490630000
C  -1.0634270000  1.4648100000  0.0351540000
C  0.3410770000  1.2309830000  -0.4405830000
O  1.0277810000  0.2123640000  1.6257880000
C  2.3356910000  -0.3130580000  -0.2251530000
O  2.8180490000  -1.4027280000  -0.4378830000
O  3.1051680000  0.7988470000  -0.3615220000
O  -1.4786910000  2.5234870000  0.4459300000
O  -2.3215840000  -0.0092490000  -1.4273100000
H  -2.9347410000  0.4951200000  0.4306380000
O  -2.2465230000  -2.0986150000  0.4068240000
H  -1.2444580000  -0.8297550000  1.6444850000
H  3.9949310000  0.4727110000  -0.5488190000
H  -2.5502560000  -2.0644030000  -0.5068880000
H  -1.5012240000  -0.1488420000  -1.9104080000
H  0.9461760000  2.1053280000  -0.2149160000
H  0.3323350000  1.0832230000  -1.5319630000