20
charge=-1, multiplicity=1, basis=def2-QZVPP, AUX_BASIS_CORR=rimp2-def2-QZVPPD, SCF_ALGORITHM=GDM, xc_grid=000099000590, mem_total=15000, num_basis=843, num_pairs=293134, num_threads=4
C  -1.5285270000  1.6129250000  0.1452910000
C  -2.0253520000  0.2030240000  -0.0742690000
O  -3.1637050000  -0.1062830000  0.2258740000
C  -1.0850590000  -0.7653870000  -0.7511250000
C  0.2889100000  -0.7875150000  -0.1068520000
C  0.3331610000  -1.2452770000  1.2048940000
C  1.2978180000  -0.2602990000  -0.8803130000
H  -2.1089980000  2.0822360000  0.9391120000
H  -0.4621030000  1.6173420000  0.3671660000
H  -1.6803740000  2.1790020000  -0.7803170000
H  -0.5544290000  -1.6617160000  1.6655720000
H  1.2710580000  -1.3390770000  1.7380990000
O  2.6172900000  -0.1874290000  -0.4016370000
C  2.8218640000  0.9163610000  0.4451760000
H  3.8318160000  0.8362560000  0.8622550000
H  2.7387580000  1.8634050000  -0.1085420000
H  2.0952900000  0.9255540000  1.2661870000
H  -0.9983690000  -0.4657430000  -1.8029390000
H  -1.5550390000  -1.7507780000  -0.7165780000
H  1.1768130000  0.0202240000  -1.9207160000