25
charge=0, multiplicity=1, basis=def2-QZVPP, AUX_BASIS_CORR=rimp2-def2-QZVPPD, SCF_ALGORITHM=GDM, xc_grid=000099000590, mem_total=15000, num_basis=1047, num_pairs=414028, num_threads=4
C  -0.5249530000  -0.8317280000  1.1554610000
C  0.7746650000  -0.3835810000  0.5265980000
C  1.6031550000  -1.2902750000  -0.1228800000
C  1.1686080000  0.9495620000  0.6116890000
C  2.8119470000  -0.8792770000  -0.6716950000
H  1.2994860000  -2.3286550000  -0.2049660000
C  2.3700630000  1.3644730000  0.0590200000
H  0.5168450000  1.6594330000  1.1070500000
C  3.1973580000  0.4497970000  -0.5826010000
H  3.4478040000  -1.5971740000  -1.1759820000
H  2.6655810000  2.4046220000  0.1297810000
O  -1.5902790000  0.0683890000  0.9398080000
C  -2.0624830000  0.1399200000  -0.4062840000
H  -1.1986630000  0.1269500000  -1.0825460000
H  4.1364320000  0.7746480000  -1.0141330000
C  -2.7750020000  1.4706370000  -0.5388180000
H  -2.0906080000  2.2922540000  -0.3240940000
H  -3.1693290000  1.5989100000  -1.5489620000
H  -3.6062540000  1.5220530000  0.1679980000
C  -2.9739590000  -1.0358210000  -0.7273980000
H  -2.4601590000  -1.9917080000  -0.6114520000
H  -3.8415360000  -1.0293210000  -0.0637510000
H  -3.3251600000  -0.9738610000  -1.7598490000
H  -0.7751840000  -1.8396610000  0.8034160000
H  -0.4134150000  -0.8878320000  2.2404800000