16
charge=0, multiplicity=2, basis=def2-QZVPP, AUX_BASIS_CORR=rimp2-def2-QZVPPD, SCF_ALGORITHM=GDM, xc_grid=000099000590, mem_total=7500, num_basis=750, num_pairs=232137, num_threads=2
C  3.5229180000  0.0000000000  -0.0000060000
C  2.1272270000  0.0000000000  -0.0000040000
C  1.3918270000  -1.2167300000  -0.0001940000
C  1.3918270000  1.2167300000  0.0001900000
H  1.9315890000  -2.1557310000  -0.0003440000
C  0.0185280000  -1.2185110000  -0.0001910000
C  0.0185270000  1.2185100000  0.0001910000
C  -0.6567730000  0.0000000000  0.0000010000
H  1.9315890000  2.1557310000  0.0003370000
H  -0.5491330000  -2.1379500000  -0.0003340000
H  -0.5491330000  2.1379500000  0.0003360000
N  -2.1190410000  0.0000000000  0.0000040000
O  -2.6860440000  -1.0780340000  -0.0001350000
O  -2.6860430000  1.0780340000  0.0001430000
H  4.0802900000  -0.9273140000  -0.0001530000
H  4.0802900000  0.9273140000  0.0001400000