35
charge=0, multiplicity=2, basis=def2-QZVPP, AUX_BASIS_CORR=rimp2-def2-QZVPPD, SCF_ALGORITHM=GDM, xc_grid=000099000590, mem_total=60000, num_basis=1644, num_pairs=931992, num_threads=16
C  -0.6051020000  1.9468160000  -1.2195750000
C  -1.5976740000  0.9865740000  -1.2397720000
C  -2.0605050000  0.4567220000  0.0000090000
C  -1.5976480000  0.9865680000  1.2397840000
C  -0.6050760000  1.9468100000  1.2195700000
C  -0.1159860000  2.3864390000  -0.0000070000
H  -0.2049350000  2.3639760000  -2.1346570000
H  -0.2048900000  2.3639650000  2.1346450000
F  0.8661540000  3.3019990000  -0.0000150000
O  -2.9390830000  -0.5170470000  0.0000170000
H  -2.4176550000  -1.5108730000  0.0000070000
C  1.5992180000  -0.8729840000  0.6946090000
C  1.5992140000  -0.8729720000  -0.6946140000
C  2.6313620000  -0.3086470000  -1.4152180000
C  3.6747080000  0.2678820000  -0.6965440000
C  3.6747130000  0.2678700000  0.6965450000
C  2.6313710000  -0.3086710000  1.4152150000
C  0.3591210000  -1.5265660000  1.1803800000
C  0.3591130000  -1.5265460000  -1.1803880000
H  2.6201380000  -0.3149960000  -2.4976100000
H  4.5005410000  0.7257700000  -1.2266340000
H  4.5005490000  0.7257490000  1.2266370000
H  2.6201540000  -0.3150390000  2.4976080000
O  0.0040950000  -1.7784730000  -2.2944620000
O  0.0041100000  -1.7785120000  2.2944520000
N  -0.3810270000  -1.8164600000  -0.0000040000
O  -1.5309930000  -2.4278710000  -0.0000050000
C  -2.1984550000  0.4893740000  2.5144320000
H  -1.8194060000  1.0514610000  3.3673970000
H  -3.2855750000  0.5781260000  2.4788510000
H  -1.9681140000  -0.5668010000  2.6673630000
C  -2.1985050000  0.4893830000  -2.5144100000
H  -3.2856290000  0.5780620000  -2.4787810000
H  -1.8195270000  1.0515200000  -3.3673740000
H  -1.9681010000  -0.5667740000  -2.6673840000