17
charge=0, multiplicity=2, basis=def2-QZVPP, AUX_BASIS_CORR=rimp2-def2-QZVPPD, SCF_ALGORITHM=GDM, xc_grid=000099000590, mem_total=7500, num_basis=699, num_pairs=214949, num_threads=2
C  2.4316690000  -0.6479510000  -0.1429530000
C  1.0269350000  -0.1732090000  0.0212230000
H  2.4755410000  -1.7327720000  -0.0662860000
H  3.0756050000  -0.2061820000  0.6229660000
H  2.8293550000  -0.3374310000  -1.1130940000
N  0.0530950000  -0.9596520000  0.2196930000
C  0.6723700000  1.2997010000  0.0001570000
C  -0.8525620000  1.2493310000  -0.1181190000
H  1.1645040000  1.8361870000  -0.8137500000
H  1.0055060000  1.7640170000  0.9354520000
C  -1.1843920000  -0.1803970000  0.3796540000
H  -1.1547050000  1.3479600000  -1.1628780000
H  -1.3636000000  2.0229950000  0.4550070000
C  -2.3371790000  -0.8262320000  -0.2908020000
H  -3.2669760000  -0.2856280000  -0.4151520000
H  -2.2954060000  -1.8772730000  -0.5400280000
H  -1.3825360000  -0.1417680000  1.4649430000