26
charge=0, multiplicity=2, basis=def2-QZVPP, AUX_BASIS_CORR=rimp2-def2-QZVPPD, SCF_ALGORITHM=GDM, xc_grid=000099000590, mem_total=15000, num_basis=1077, num_pairs=420395, num_threads=4
C  1.5938880000  0.3000120000  -0.3483130000
C  1.8600590000  -1.0864640000  0.2607510000
O  3.0684860000  -1.5739430000  -0.0045150000
O  1.0337760000  -1.6835680000  0.8924170000
C  0.8415350000  1.1786690000  0.5902960000
H  0.9758640000  0.1002730000  -1.2301150000
N  2.8712210000  0.8670670000  -0.8411650000
H  3.5274900000  -0.8691150000  -0.5119490000
C  -0.2453850000  2.0888970000  0.1385260000
H  3.2540940000  1.5240720000  -0.1696430000
H  2.7509250000  1.3584900000  -1.7176530000
H  -0.1450550000  3.0637850000  0.6281340000
C  -1.6511520000  1.5356510000  0.4467100000
H  -0.1622160000  2.2678520000  -0.9395190000
H  -2.3935970000  2.2845690000  0.1507880000
H  -1.7492650000  1.4085600000  1.5298670000
C  -1.9400480000  0.2120980000  -0.2515400000
H  -1.8390060000  0.3268660000  -1.3362800000
C  -3.3300120000  -0.3274050000  0.0454850000
H  -1.2021160000  -0.5334230000  0.0627920000
H  -4.0828530000  0.3855970000  -0.3046600000
H  -3.4536470000  -0.4118660000  1.1358750000
N  -3.5432970000  -1.5886430000  -0.6590640000
H  -4.4774690000  -1.9475100000  -0.5056010000
H  -2.8880420000  -2.2935170000  -0.3398540000
H  0.9980190000  1.0377370000  1.6547210000