15
charge=-1, multiplicity=1, basis=def2-QZVPP, AUX_BASIS_CORR=rimp2-def2-QZVPPD, SCF_ALGORITHM=GDM, xc_grid=000099000590, mem_total=7500, num_basis=720, num_pairs=221926, num_threads=2
O  -2.3496550000  0.7291120000  -0.0000330000
O  -2.2668300000  -1.4948040000  0.0000100000
O  -0.3106230000  2.0888070000  -0.0000390000
C  -1.6912450000  -0.4204540000  0.0000000000
C  -0.2089680000  -0.2868490000  0.0000090000
C  0.3941890000  1.0114320000  0.0000040000
C  1.8173950000  1.0460720000  -0.0000040000
H  2.2880640000  2.0230090000  -0.0000210000
C  2.5665040000  -0.1085610000  0.0000120000
H  3.6509890000  -0.0365260000  0.0000110000
C  1.9590570000  -1.3710190000  0.0000310000
C  0.5773330000  -1.4357700000  0.0000250000
H  2.5583350000  -2.2739670000  0.0000440000
H  0.0601190000  -2.3888170000  0.0000350000
H  -1.6262270000  1.4822750000  -0.0000390000