52
charge=-1, multiplicity=1, basis=def2-QZVPP, mem_total=120000, AUX_BASIS_CORR=rimp2-def2-QZVPPD, SCF_ALGORITHM=GDM, xc_grid=000099000590, num_basis=2208, num_pairs=1333617, num_threads=32
C  4.8079200000  -0.8599050000  -1.8015780000
C  3.3430810000  -0.4296950000  -1.8880380000
H  2.8373000000  -1.0664870000  -2.6220620000
H  3.2727520000  0.5912770000  -2.2837130000
H  5.2304060000  -0.9119700000  -2.8108330000
H  4.8449730000  -1.8790780000  -1.3985900000
C  2.6037340000  -0.5334750000  -0.5714240000
H  2.9007210000  -1.3545650000  0.0737210000
C  1.2645470000  -0.1821680000  -0.4769090000
H  0.7533390000  0.2630890000  -1.3210810000
C  3.8171800000  0.8321330000  0.5557180000
C  3.1170990000  0.9777280000  1.7364950000
H  3.4792680000  0.4733540000  2.6276740000
C  1.8202440000  1.4951210000  1.7595270000
H  1.2464580000  1.3888510000  2.6745850000
C  1.1518810000  1.8621000000  0.6150490000
H  1.7259440000  2.1671070000  -0.2511810000
C  -0.2734170000  2.3228040000  0.6227800000
H  -0.8224440000  1.8844660000  1.4576610000
H  -0.7770970000  2.0401760000  -0.3020920000
H  -0.3234760000  3.4149050000  0.7144500000
C  0.4307250000  -0.9198560000  0.5166600000
C  -0.9940320000  -1.0074910000  0.2640760000
O  0.9920050000  -1.4417950000  1.4796220000
C  -1.9220440000  -1.7770560000  1.0862320000
C  -1.7039760000  -0.4749160000  -0.8395700000
O  -1.3613650000  0.2526110000  -1.7842000000
O  -1.7417670000  -2.4925910000  2.0569120000
C  -3.1652710000  -0.9479810000  -0.7376300000
H  -3.3120100000  -1.6762840000  -1.5488370000
C  -4.1729970000  0.1893100000  -0.9282250000
C  -4.0482710000  1.2404820000  0.1771120000
H  -4.3707870000  0.7990480000  1.1243970000
H  -2.9927600000  1.4868590000  0.3027120000
C  -4.8230590000  2.5254480000  -0.0995480000
H  -4.5090700000  2.9727410000  -1.0473790000
H  -4.6492630000  3.2635630000  0.6878750000
H  -5.9015820000  2.3546600000  -0.1534830000
N  -3.2128060000  -1.5878020000  0.5582220000
H  -3.8501520000  -2.3491580000  0.7334730000
C  -5.5930680000  -0.3637540000  -1.0392910000
H  -6.3223930000  0.4194060000  -1.2590140000
H  -5.8939880000  -0.8434190000  -0.1021460000
H  -5.6605590000  -1.1098610000  -1.8364170000
H  -3.8968750000  0.6597780000  -1.8785040000
C  5.1895890000  0.2114910000  0.4932780000
H  5.9040240000  0.8332770000  1.0470530000
H  5.1734540000  -0.7618370000  0.9962340000
H  3.6275280000  1.5644960000  -0.2224140000
C  5.6863090000  0.0476050000  -0.9422960000
H  6.7096560000  -0.3425100000  -0.9336890000
H  5.7382430000  1.0393800000  -1.4091220000