47
charge=0, multiplicity=1, basis=def2-QZVPP, mem_total=120000, AUX_BASIS_CORR=rimp2-def2-QZVPPD, SCF_ALGORITHM=GDM, xc_grid=000099000590, num_basis=1977, num_pairs=992271, num_threads=32
C  0.7728820000  0.7414410000  0.6521180000
C  2.2688100000  0.8271450000  0.6679870000
C  -3.1157370000  0.5001790000  -1.5403090000
C  0.1411280000  1.9299870000  -0.0613180000
H  0.4679110000  -0.1919940000  0.1635910000
C  -1.3612610000  1.7514700000  -0.2644970000
H  0.3276770000  2.8194860000  0.5456200000
H  0.6290390000  2.0866180000  -1.0272520000
C  -1.6707260000  0.8846260000  -1.4835820000
H  -1.7804730000  1.2801410000  0.6302640000
C  3.0791040000  -0.0916290000  0.1466580000
C  4.5313260000  -0.0000350000  0.1542590000
C  -3.7155670000  -0.5689470000  -1.0048080000
C  5.3462500000  -0.9195260000  -0.3621790000
H  -1.4197640000  1.4726160000  -2.3705160000
H  -1.0361640000  0.0018760000  -1.4601500000
C  6.8363840000  -0.8157600000  -0.3524700000
H  7.2801170000  -1.6713210000  0.1610530000
H  7.1482160000  0.0909500000  0.1797080000
C  -2.9393200000  -1.5777920000  -0.2402450000
C  -3.0366470000  -3.6811820000  0.8043710000
H  -3.7846230000  -4.4554620000  0.9528670000
H  -2.6904830000  -3.2935130000  1.7625290000
H  -2.1834730000  -4.0730940000  0.2508090000
O  -3.6887760000  -2.6536860000  0.0567450000
O  0.2549990000  0.7514000000  1.9788330000
O  -2.0106510000  2.9990820000  -0.4812840000
O  -1.7832280000  -1.4929470000  0.1063200000
O  7.3854630000  -0.8496710000  -1.6656550000
H  6.9758110000  -0.1495310000  -2.1816090000
C  0.3895140000  -0.4842920000  2.6490220000
H  -0.1435350000  -1.2748490000  2.1098100000
H  1.4414120000  -0.7693780000  2.7632620000
H  -0.0519390000  -0.3580310000  3.6370240000
C  -2.3199060000  3.6965450000  0.7022640000
H  -2.8020790000  4.6284200000  0.4090850000
H  -3.0064430000  3.1178290000  1.3323830000
H  -1.4258080000  3.9314650000  1.2908570000
C  -5.1955870000  -0.8006640000  -1.1502120000
H  -5.4011950000  -1.7336730000  -1.6780880000
H  -5.6838250000  -0.8752840000  -0.1763410000
H  -5.6513670000  0.0201580000  -1.7038950000
H  4.9321360000  -1.8029780000  -0.8428940000
H  4.9594710000  0.8833750000  0.6244570000
H  2.6854240000  1.7081280000  1.1529600000
H  2.6479020000  -0.9737830000  -0.3222000000
H  -3.7602850000  1.1990160000  -2.0653640000