26
charge=0, multiplicity=2, basis=def2-QZVPP, mem_total=30000, AUX_BASIS_CORR=rimp2-def2-QZVPPD, SCF_ALGORITHM=GDM, xc_grid=000099000590, num_basis=1077, num_pairs=442772, num_threads=8
C  0.6195520000  -0.4480370000  -0.9408500000
C  1.7871080000  -1.3328160000  -0.6193100000
C  2.3866010000  -0.9181660000  0.7279190000
H  2.5411370000  -1.2328810000  -1.4040250000
H  1.4727140000  -2.3801630000  -0.5895000000
C  2.5256090000  0.5996810000  0.6995750000
H  3.3443950000  -1.4100860000  0.9114980000
H  1.7033270000  -1.2148750000  1.5270130000
C  1.2208600000  1.2311900000  0.2839040000
H  3.3111020000  0.8960830000  -0.0030690000
H  2.8124140000  0.9832590000  1.6833100000
C  1.1582160000  2.3380190000  -0.5255420000
H  0.2317920000  2.8796740000  -0.6660820000
H  2.0113320000  2.6411450000  -1.1224390000
H  0.4008830000  1.0872490000  0.9825800000
C  -0.6663280000  -0.7398510000  -0.3199680000
O  -1.6635030000  -0.0093770000  -0.8658390000
C  -2.9623860000  -0.1392950000  -0.2666000000
H  0.5565100000  0.0076780000  -1.9193950000
O  -0.8404190000  -1.5068180000  0.6031780000
C  -3.0953600000  0.7436980000  0.9565220000
H  -2.8875870000  1.7855220000  0.7050260000
H  -4.1125720000  0.6829010000  1.3501660000
H  -2.4087630000  0.4219060000  1.7399970000
H  -3.1334650000  -1.1861970000  -0.0161830000
H  -3.6550880000  0.1618110000  -1.0515110000