41
charge=0, multiplicity=1, basis=def2-QZVPP, mem_total=120000, AUX_BASIS_CORR=rimp2-def2-QZVPPD, SCF_ALGORITHM=GDM, xc_grid=000099000590, num_basis=1824, num_pairs=1098444, num_threads=32
C  0.4999970000  0.2770350000  0.7947190000
C  -0.0715560000  -1.0734300000  0.6953270000
C  -0.3224080000  1.4116980000  0.9993000000
C  -1.0986430000  -1.5443820000  1.5880170000
C  -1.5903320000  1.5017850000  1.5818970000
C  -2.1159570000  -0.8625390000  2.1783520000
C  -2.3927130000  0.5178860000  2.1031560000
H  -1.0776170000  -2.6165350000  1.7591180000
H  -2.8104290000  -1.4527900000  2.7682950000
H  -3.3146430000  0.8464230000  2.5713270000
H  -1.9732320000  2.5143190000  1.6632550000
C  -1.0985540000  1.1109240000  -1.6055420000
H  0.1611050000  2.3653280000  0.8300260000
C  -0.7380860000  -1.1361010000  -1.1284440000
H  0.6972860000  -1.8175270000  0.5565590000
C  -1.7915370000  -0.0807400000  -1.1677280000
C  0.3439770000  -0.6135030000  -1.8916030000
H  -0.9852620000  -2.1874690000  -1.1777440000
C  0.1347300000  0.7451980000  -2.1227670000
H  -1.5210460000  2.1018490000  -1.6557020000
H  1.2275700000  -1.1721700000  -2.1632450000
H  0.8476230000  1.4198840000  -2.5746600000
C  -3.1098840000  -0.2217090000  -0.9251940000
C  -4.0786320000  0.9137510000  -1.0592180000
C  -3.7387730000  -1.5463490000  -0.6203800000
H  -3.0122560000  -2.3187820000  -0.3830790000
H  -4.3243120000  -1.8803330000  -1.4841660000
H  -4.4330780000  -1.4592110000  0.2182010000
H  -3.5926690000  1.8770930000  -1.1914490000
H  -4.7166010000  0.9695300000  -0.1739660000
H  -4.7393710000  0.7448010000  -1.9159360000
C  1.8401020000  0.4660690000  0.4419920000
C  2.3246950000  1.7994520000  0.3200820000
N  2.6550210000  2.8968770000  0.2068020000
C  2.8253090000  -0.5924100000  0.2100420000
O  2.6545740000  -1.7951120000  0.2553390000
O  4.0321200000  -0.0703680000  -0.0753160000
C  5.0836020000  -1.0067330000  -0.3014690000
H  5.9655080000  -0.4065910000  -0.5092880000
H  5.2410220000  -1.6268280000  0.5809960000
H  4.8496940000  -1.6507050000  -1.1495840000