13
charge=0, multiplicity=2, basis=def2-QZVPP, mem_total=3750, AUX_BASIS_CORR=rimp2-def2-QZVPPD, SCF_ALGORITHM=GDM, xc_grid=000099000590, num_basis=511, num_pairs=118865, num_threads=1
Si  -0.0000230000  -0.0000100000  -0.4268510000
C  -1.7810100000  0.1067460000  0.1772150000
H  -1.8128320000  0.1086140000  1.2725740000
H  -2.2670900000  1.0199950000  -0.1717770000
H  -2.3726970000  -0.7418780000  -0.1718300000
C  0.7980760000  -1.5957600000  0.1772380000
H  0.8126450000  -1.6241180000  1.2726040000
H  0.2500820000  -2.4733550000  -0.1715030000
H  1.8287600000  -1.6839880000  -0.1720420000
C  0.9829600000  1.4890280000  0.1771030000
H  2.0169060000  1.4532740000  -0.1718510000
H  0.5439380000  2.4257470000  -0.1720520000
H  1.0004610000  1.5157700000  1.2724630000