13
charge=0, multiplicity=2, basis=def2-QZVPP, AUX_BASIS_CORR=rimp2-def2-QZVPPD, SCF_ALGORITHM=GDM, xc_grid=000099000590, mem_total=3750, num_basis=511, num_pairs=118865, num_threads=1
Si  -0.0000050000  0.0000310000  -0.4268160000
C  -1.5125780000  -0.9463530000  0.1771090000
H  -1.5396830000  -0.9633420000  1.2724670000
H  -2.4382970000  -0.4845000000  -0.1719330000
H  -1.5021540000  -1.9808180000  -0.1719840000
C  1.5758520000  -0.8367630000  0.1770730000
H  1.6040130000  -0.8520310000  1.2724280000
H  1.6388570000  -1.8692890000  -0.1722340000
H  2.4665060000  -0.3103430000  -0.1717990000
C  -0.0632710000  1.7830760000  0.1773370000
H  0.7994470000  2.3539330000  -0.1718540000
H  -0.9644720000  2.2912580000  -0.1714890000
H  -0.0641650000  1.8149360000  1.2727000000