22
charge=0, multiplicity=2, basis=def2-QZVPP, mem_total=15000, AUX_BASIS_CORR=rimp2-def2-QZVPPD, SCF_ALGORITHM=GDM, xc_grid=000099000590, num_basis=862, num_pairs=298603, num_threads=4
Si  0.0000000000  -0.4447240000  -0.4764680000
C  1.5452480000  -1.0073620000  0.4626580000
C  2.8719640000  -0.5223230000  -0.1282230000
C  0.0000000000  1.4386350000  -0.6795750000
C  0.0000030000  2.1975520000  0.6556080000
C  -1.5452500000  -1.0073620000  0.4626570000
C  -2.8719650000  -0.5223200000  -0.1282210000
H  1.4475520000  -0.6555650000  1.4979670000
H  1.5365500000  -2.1000760000  0.5212390000
H  2.9252410000  0.5689680000  -0.1505770000
H  3.7252530000  -0.8777090000  0.4542260000
H  3.0038540000  -0.8749120000  -1.1540450000
H  -0.8716710000  1.7276820000  -1.2739840000
H  0.8716680000  1.7276820000  -1.2739890000
H  0.0000020000  3.2795370000  0.5003680000
H  -0.8805040000  1.9544530000  1.2555570000
H  0.8805140000  1.9544550000  1.2555510000
H  -1.4475520000  -0.6555700000  1.4979670000
H  -1.5365530000  -2.1000770000  0.5212330000
H  -2.9252410000  0.5689710000  -0.1505690000
H  -3.0038550000  -0.8749030000  -1.1540460000
H  -3.7252540000  -0.8777090000  0.4542260000