25
charge=0, multiplicity=2, basis=def2-QZVPP, mem_total=30000, AUX_BASIS_CORR=rimp2-def2-QZVPPD, SCF_ALGORITHM=GDM, xc_grid=000099000590, num_basis=1141, num_pairs=456536, num_threads=8
C  -1.7341490000  -1.2849520000  0.0000290000
F  -2.5777470000  0.5313050000  -0.0000220000
C  -2.3658480000  -1.7589550000  1.2677990000
C  -0.3499330000  -0.8520030000  0.0000210000
C  -2.3658410000  -1.7590230000  -1.2677180000
H  -2.1844750000  -1.0819970000  2.1000550000
H  -1.9681330000  -2.7453830000  1.5381650000
H  -3.4428280000  -1.8535830000  1.1411800000
C  0.3435950000  -0.6299940000  1.2044690000
C  0.3436050000  -0.6300700000  -1.2044340000
H  -1.9681250000  -2.7454660000  -1.5380290000
H  -2.1844630000  -1.0821110000  -2.1000100000
H  -3.4428210000  -1.8536450000  -1.1411010000
S  -3.3757130000  2.2641340000  -0.0000660000
H  -2.1556760000  2.8278990000  -0.0000780000
C  1.6562260000  -0.2072390000  -1.2109150000
C  2.2980080000  0.0014390000  0.0000050000
C  1.6562150000  -0.2071620000  1.2109340000
H  -0.1503920000  -0.7884390000  2.1516250000
H  2.1906510000  -0.0360940000  2.1343330000
H  -0.1503740000  -0.7885760000  -2.1515840000
H  2.1906690000  -0.0362290000  -2.1343210000
N  3.6946620000  0.4508420000  -0.0000030000
O  4.2326940000  0.6242600000  1.0776080000
O  4.2327040000  0.6241870000  -1.0776210000