35
charge=0, multiplicity=1, basis=def2-QZVPP, AUX_BASIS_CORR=rimp2-def2-QZVPPD, SCF_ALGORITHM=GDM, xc_grid=000099000590, mem_total=60000, num_basis=1590, num_pairs=844684, num_threads=16
C  1.7027470000  0.4826810000  -0.0422400000
C  1.9187720000  -0.7857280000  0.5149280000
C  3.0656210000  -1.4819220000  0.1198100000
C  3.9909880000  -0.9532710000  -0.7599810000
C  3.7891320000  0.3181250000  -1.2785410000
C  2.6525150000  1.0159820000  -0.9221380000
H  3.2382670000  -2.4684860000  0.5364130000
H  4.8663120000  -1.5289120000  -1.0360040000
H  4.5047490000  0.7567300000  -1.9630120000
H  2.4706070000  2.0037980000  -1.3257940000
C  0.5134570000  1.3261940000  0.1805630000
C  -0.8204450000  1.0223870000  0.0182370000
C  -1.4798990000  -0.2601040000  -0.2394300000
C  -2.3063300000  -0.4415810000  -1.3470180000
C  -1.2424880000  -1.3195010000  0.6424830000
C  -2.8967680000  -1.6705660000  -1.5893290000
H  -2.4675590000  0.3815700000  -2.0330010000
C  -1.8413980000  -2.5485880000  0.3828330000
C  -2.6600410000  -2.7283320000  -0.7213770000
H  -3.5324120000  -1.8054560000  -2.4556570000
H  -1.6690180000  -3.3744130000  1.0645250000
H  -3.1169560000  -3.6934740000  -0.9038480000
C  -0.3613480000  -1.1287180000  1.8475790000
H  -3.4242340000  1.7048280000  0.6471030000
C  -2.8707040000  2.5053170000  0.1589670000
N  -1.4534080000  2.2085750000  0.1933540000
H  -3.0189290000  3.4410620000  0.6920360000
H  -3.2220820000  2.6140300000  -0.8675530000
N  -0.5707350000  3.1847020000  0.4350900000
N  0.6116500000  2.6620090000  0.4196610000
H  -0.4557850000  -0.1089120000  2.2203220000
H  -0.7139680000  -1.7850660000  2.6472030000
C  1.1133430000  -1.4672420000  1.6106440000
H  1.1826770000  -2.5435180000  1.4308920000
H  1.6428460000  -1.2915830000  2.5537090000