19
charge=0, multiplicity=2, basis=def2-QZVPP, AUX_BASIS_CORR=rimp2-def2-QZVPPD, SCF_ALGORITHM=GDM, xc_grid=000099000590, mem_total=7500, num_basis=786, num_pairs=290044, num_threads=2
H  0.5324780000  2.3552100000  0.0642140000
C  -0.0094090000  1.5261400000  -0.3960520000
N  0.9554630000  0.4688420000  -0.7238560000
H  -0.4347770000  1.8886650000  -1.3321670000
C  -1.1077920000  0.9609780000  0.5505000000
C  1.4882970000  -0.0851660000  0.5365080000
C  0.3076790000  -0.5895440000  -1.4101100000
H  -1.0188430000  1.3704760000  1.5593510000
H  -2.1088360000  1.2004050000  0.1852590000
N  -0.9675500000  -0.4930640000  0.6343060000
H  2.2967250000  -0.7813170000  0.3052350000
H  1.9111220000  0.7352740000  1.1224990000
C  0.3150370000  -0.7982770000  1.2804020000
H  0.9718590000  -1.3135880000  -1.8733110000
C  -0.9698120000  -1.0330270000  -0.7384130000
H  0.4471940000  -1.8824330000  1.2704750000
H  0.2564300000  -0.4838890000  2.3246130000
H  -1.8817770000  -0.6804520000  -1.2331460000
H  -1.0309670000  -2.1254220000  -0.7031730000