18
charge=1, multiplicity=2, basis=def2-QZVPP, AUX_BASIS_CORR=rimp2-def2-QZVPPD, SCF_ALGORITHM=GDM, xc_grid=000099000590, mem_total=7500, num_basis=783, num_pairs=243681, num_threads=2
C  1.6819720000  1.1440480000  0.1647950000
C  0.3176190000  0.8721700000  -0.0526070000
C  -0.0511380000  -0.4696780000  -0.2229100000
C  0.8518180000  -1.4769860000  -0.1807150000
H  3.6273920000  0.2515200000  0.3628510000
H  2.0142800000  2.1645700000  0.2990510000
H  0.6079070000  -2.5233340000  -0.3095370000
H  2.8376640000  -1.9154980000  0.0616310000
C  -3.2443040000  -0.6340460000  0.5117640000
H  -4.2159690000  -0.1575410000  0.3629190000
H  -3.3492830000  -1.7108290000  0.3792250000
H  -2.8922980000  -0.3947210000  1.5175130000
O  -2.4072090000  -0.0689990000  -0.4920770000
H  -1.4263970000  -0.5743870000  -0.5287800000
N  2.1536430000  -1.1683160000  0.0315950000
C  2.5680070000  0.1075330000  0.2005660000
O  -0.5401480000  1.8541940000  -0.0881670000
H  -1.4437950000  1.4986270000  -0.2494510000