17
charge=0, multiplicity=1, basis=def2-QZVPP, AUX_BASIS_CORR=rimp2-def2-QZVPPD, SCF_ALGORITHM=GDM, xc_grid=000099000590, mem_total=7500, num_basis=766, num_pairs=252775, num_threads=2
N  -0.6125080000  -1.0913940000  -0.2782000000
H  0.0703690000  -1.5260430000  -0.8859660000
C  -0.1191010000  -0.0615000000  0.6221450000
H  -0.7455230000  -0.0962030000  1.5184690000
C  1.3210830000  -0.3503500000  1.0265790000
C  -0.2718130000  1.3501550000  0.0217850000
H  1.7047820000  0.4785950000  1.6160990000
H  1.3497850000  -1.2527220000  1.6369400000
S  2.4608650000  -0.6694160000  -0.3626210000
O  0.6900200000  2.0582710000  -0.2115840000
N  -1.5486220000  1.7211340000  -0.1958540000
H  -2.3165530000  1.0932280000  0.0129670000
H  -1.7197930000  2.6250110000  -0.6065480000
C  -1.9121770000  -1.4206710000  -0.3830920000
H  -2.0946550000  -2.2560820000  -1.0757400000
O  -2.8151880000  -0.8639800000  0.2169950000
H  2.3990560000  0.5765640000  -0.8636870000