17
charge=0, multiplicity=1, basis=def2-QZVPP, AUX_BASIS_CORR=rimp2-def2-QZVPPD, SCF_ALGORITHM=GDM, xc_grid=000099000590, mem_total=7500, num_basis=753, num_pairs=245017, num_threads=2
N  -0.6018330000  -1.0522710000  -0.3664480000
H  -0.0826160000  -1.6152150000  -1.0266570000
C  0.1814230000  -0.2502420000  0.5615120000
H  -0.3631110000  -0.2050970000  1.5081770000
C  1.5348990000  -0.9157240000  0.7667170000
C  0.3588540000  1.1802850000  0.0252710000
H  2.1385520000  -0.3053500000  1.4439690000
H  1.3910510000  -1.8978220000  1.2190420000
O  1.4360250000  1.5711200000  -0.3969080000
N  -0.7517160000  1.9378500000  0.0633400000
H  -1.6413720000  1.5229290000  0.3176580000
H  -0.7164480000  2.8579010000  -0.3469900000
C  -1.9451770000  -1.0116270000  -0.4119830000
H  -2.3807690000  -1.7134470000  -1.1389710000
O  -2.6326870000  -0.2775060000  0.2767260000
O  2.1904620000  -1.1212420000  -0.4672360000
H  2.3991650000  -0.2380850000  -0.8042220000