59
charge=0, multiplicity=1, basis=def2-QZVPP, mem_total=240000, AUX_BASIS_CORR=rimp2-def2-QZVPPD, SCF_ALGORITHM=GDM, xc_grid=000099000590, num_basis=2472, num_pairs=1692062, num_threads=64
C  0.2186990000  -0.2668940000  0.2708810000
C  -0.2003410000  1.2247360000  0.5078020000
C  1.6546490000  -0.4085970000  -0.2315870000
C  -0.8109620000  -0.9018120000  -0.6362850000
C  0.9556200000  2.0876570000  0.9701890000
C  -0.9176470000  1.8567900000  -0.6808600000
C  2.2003970000  1.6376000000  1.0747910000
C  2.6359830000  0.2287110000  0.7773850000
C  4.0319790000  0.2418300000  0.1306510000
C  2.6944020000  -0.5173060000  2.1259220000
C  2.0831530000  -1.8372180000  -0.5731620000
H  1.7447680000  0.1740240000  -1.1536120000
H  1.7230470000  -0.5214360000  2.6213360000
H  3.0289530000  -1.5495420000  2.0253610000
H  3.3945920000  -0.0074950000  2.7927930000
C  4.5275320000  -1.1440470000  -0.2886240000
H  3.9977300000  0.8877170000  -0.7555600000
H  4.7494130000  0.6988530000  0.8216090000
C  3.4896890000  -1.8391380000  -1.1724170000
H  2.0489110000  -2.4677520000  0.3214470000
H  1.3893330000  -2.2702270000  -1.2921100000
C  5.8795610000  -1.0534770000  -0.9877040000
H  4.6613200000  -1.7488000000  0.6153330000
H  3.8107550000  -2.8641430000  -1.3819210000
H  3.4545200000  -1.3226300000  -2.1402660000
C  0.5888990000  3.4968040000  1.3396820000
H  2.9701940000  2.3070170000  1.4547910000
H  -0.1882580000  3.5045730000  2.1102620000
H  1.4546380000  4.0412270000  1.7181900000
H  0.1839450000  4.0416770000  0.4828090000
H  5.8036900000  -0.4555540000  -1.9010490000
H  6.6297060000  -0.5858880000  -0.3447790000
H  6.2477900000  -2.0436410000  -1.2681780000
C  -0.0940760000  2.1183990000  -1.9105350000
H  -0.5873790000  2.7971590000  -2.6040820000
H  0.8700040000  2.5536310000  -1.6376770000
H  0.1107620000  1.1849700000  -2.4412230000
C  -2.2189110000  2.1250060000  -0.5780320000
C  -3.1312150000  2.6904100000  -1.6210150000
H  -2.6143460000  2.9574380000  -2.5413190000
H  -3.9099170000  1.9655380000  -1.8815810000
H  -3.6442240000  3.5820450000  -1.2488610000
H  -2.6994200000  1.8944780000  0.3708220000
C  -2.1515960000  -1.2280650000  -0.0636050000
O  -0.6132460000  -1.1281220000  -1.8103430000
C  -3.1899410000  -1.6185420000  -0.8014110000
C  -2.5867000000  -1.1588310000  1.3704550000
H  -3.1763530000  -1.7451170000  -1.8753950000
C  -4.4129450000  -1.8285880000  0.0371670000
N  -3.9094850000  -1.5024040000  1.3559630000
H  -4.4393930000  -1.5795580000  2.2086270000
O  -1.9395960000  -0.8665650000  2.3545760000
C  -5.5899390000  -0.9555970000  -0.3910920000
H  -6.4395930000  -1.1000400000  0.2786850000
H  -5.9090450000  -1.2146790000  -1.4024320000
H  -5.3062260000  0.0978240000  -0.3704930000
H  -4.7077900000  -2.8848840000  -0.0091320000
H  0.1196490000  -0.7589960000  1.2405720000
H  -0.9203760000  1.2075490000  1.3298500000