24
charge=0, multiplicity=2, basis=def2-QZVPP, AUX_BASIS_CORR=rimp2-def2-QZVPPD, SCF_ALGORITHM=GDM, xc_grid=000099000590, mem_total=15000, num_basis=1044, num_pairs=414996, num_threads=4
C  3.0921610000  -1.0402430000  -0.1293380000
C  1.8041090000  -1.5199950000  -0.0286990000
C  0.7094430000  -0.6316270000  0.0773550000
C  0.9707830000  0.7620800000  0.1036430000
C  2.2694060000  1.2199640000  -0.0096640000
C  3.3372580000  0.3337880000  -0.1302490000
H  3.9185480000  -1.7358660000  -0.2149810000
H  1.6174850000  -2.5880770000  -0.0408590000
H  2.4568990000  2.2887360000  0.0064610000
H  4.3489460000  0.7089410000  -0.2188580000
C  -1.4733220000  1.1305350000  -0.3047440000
H  -2.3290760000  1.7212360000  0.0181630000
H  -1.4134010000  1.1904970000  -1.3986160000
N  -1.7010580000  -0.2542330000  0.0883410000
C  -0.2008060000  1.6734500000  0.3322070000
H  -0.3704140000  1.7805790000  1.4099300000
H  -0.0006290000  2.6725340000  -0.0605160000
C  -0.6150060000  -1.1006910000  0.1564410000
H  -0.8358230000  -2.1561040000  0.2308830000
C  -2.9834970000  -0.7694060000  0.1136430000
C  -4.1195170000  -0.1417690000  -0.2014540000
H  -3.0132680000  -1.8046930000  0.4352960000
H  -4.1630890000  0.8792150000  -0.5524150000
H  -5.0548400000  -0.6738820000  -0.1077130000