47
charge=0, multiplicity=1, basis=def2-QZVPP, mem_total=120000, AUX_BASIS_CORR=rimp2-def2-QZVPPD, SCF_ALGORITHM=GDM, xc_grid=000099000590, num_basis=1977, num_pairs=1181887, num_threads=32
C  -2.3085010000  1.2651980000  -0.0534100000
C  -0.7953390000  1.2425180000  -0.1050070000
C  -0.1883080000  -0.4440160000  0.9310390000
C  -2.9557660000  -0.0511910000  -0.4517750000
H  -2.6241360000  1.5523610000  0.9619020000
C  -2.4944920000  -1.2611280000  0.3465360000
H  -4.0354090000  0.0812970000  -0.3684300000
H  -2.7355780000  -0.2330960000  -1.5077780000
C  -1.0014050000  -1.4954150000  0.2060410000
H  -2.7417130000  -1.1222940000  1.4118710000
C  -0.0669630000  2.2664360000  0.4927880000
H  -0.4043290000  0.8297500000  -1.0303430000
C  1.3190890000  2.3442220000  0.4045710000
C  1.2149560000  -0.4597160000  1.0575500000
C  2.0696200000  1.4124050000  -0.2714570000
H  1.6401620000  0.8429110000  -1.0847230000
H  -0.6668530000  -0.1396650000  1.8589410000
H  -0.7773160000  -2.4746480000  0.6381200000
H  -0.7429070000  -1.5570030000  -0.8487620000
C  3.5743390000  1.4669090000  -0.2528170000
H  3.9392450000  1.4269880000  0.7811090000
H  3.8893250000  2.4333520000  -0.6588480000
C  2.0906950000  -1.3064620000  0.2523590000
C  2.4052070000  -2.4635730000  -1.7807440000
H  2.8125530000  -3.3200140000  -1.2457500000
H  3.2198650000  -1.8467120000  -2.1609260000
H  1.7669190000  -2.7891750000  -2.5982760000
O  1.5620640000  -1.6889230000  -0.9229790000
O  -2.8435990000  2.2061570000  -0.9794740000
O  -3.1262000000  -2.4461150000  -0.1083180000
O  3.2233210000  -1.6222500000  0.5759640000
O  4.1935020000  0.4777290000  -1.0454040000
H  4.2176660000  -0.3419870000  -0.5341590000
C  -2.7056160000  3.5663510000  -0.6436450000
H  -3.0657380000  3.7624610000  0.3749160000
H  -1.6698870000  3.9099170000  -0.7260120000
H  -3.3193030000  4.1250630000  -1.3490750000
C  -4.4828220000  -2.5725870000  0.2454430000
H  -4.7923010000  -3.5780580000  -0.0364360000
H  -4.6225640000  -2.4477270000  1.3272550000
H  -5.1204750000  -1.8518570000  -0.2776700000
C  1.7826550000  -0.0065370000  2.3748570000
H  1.2785140000  0.9064510000  2.7008120000
H  1.6217780000  -0.7644670000  3.1484920000
H  2.8541970000  0.1758110000  2.3206300000
H  1.8327680000  3.0673830000  1.0323110000
H  -0.5712870000  2.9196860000  1.1985510000