56
charge=0, multiplicity=1, basis=def2-QZVPP, mem_total=240000, AUX_BASIS_CORR=rimp2-def2-QZVPPD, SCF_ALGORITHM=GDM, xc_grid=000099000590, num_basis=2409, num_pairs=1602674, num_threads=64
C  -0.9167710000  1.0720960000  -0.1837600000
C  -2.3255350000  1.1055160000  0.3373800000
C  0.1796360000  0.6963910000  0.4801910000
C  1.4068630000  0.3118800000  -0.3116150000
C  1.5289740000  -1.2054030000  -0.7216600000
C  2.7779020000  0.6105670000  0.3030460000
H  1.3679130000  0.8462380000  -1.2662820000
C  -3.0284200000  -0.2429260000  -0.0497390000
C  -2.3189150000  -1.3844480000  0.6416310000
C  -4.5187770000  -0.1390540000  0.2266260000
C  -1.2581590000  -1.8924710000  0.0057230000
C  -0.1223240000  -2.6091230000  0.5797290000
C  1.1342680000  -2.2701430000  0.2784720000
C  3.0218340000  -1.3157130000  -1.0467480000
H  0.9733400000  -1.3692320000  -1.6462810000
N  3.6591250000  -0.3512580000  -0.3388030000
H  2.7817250000  0.4808620000  1.3897700000
C  3.4569180000  1.9437920000  -0.0190920000
C  -3.1107120000  2.2799760000  -0.1848930000
C  -5.1610010000  0.9457960000  -0.6391520000
H  -4.6893980000  0.1128660000  1.2804780000
O  -5.2039390000  -1.3523320000  -0.0750570000
C  -4.3615230000  2.2132830000  -0.6200420000
H  -6.1651370000  1.1450160000  -0.2419890000
O  -5.2719020000  0.5122250000  -1.9860070000
C  0.2505510000  0.5283990000  1.9713130000
C  -2.6512050000  -1.6648010000  2.0799860000
H  -4.5763670000  -2.0813570000  -0.0669780000
H  -5.6689140000  -0.3669810000  -1.9517700000
H  -2.5927410000  3.2343960000  -0.1933740000
H  -4.8529670000  3.0997750000  -1.0049460000
C  5.0160100000  0.1521350000  -0.5712170000
O  3.5449300000  -2.1162920000  -1.7930680000
H  -3.6791790000  -2.0204600000  2.1915270000
H  -2.5704170000  -0.7601250000  2.6900670000
H  -1.9888200000  -2.4133950000  2.5113960000
H  0.5754950000  -0.4794240000  2.2367920000
H  -0.7020850000  0.7170020000  2.4593350000
H  0.9795810000  1.2228750000  2.3974670000
C  4.9379750000  1.5750520000  0.0104720000
O  3.1895060000  2.9729410000  0.9117300000
H  3.1668550000  2.2585830000  -1.0302210000
H  5.1777050000  0.1827200000  -1.6534780000
C  6.0832900000  -0.7256210000  0.0598460000
H  5.2616150000  1.5756110000  1.0553600000
H  5.5596140000  2.2862080000  -0.5325640000
H  7.0749270000  -0.2986890000  -0.1080490000
H  6.0577880000  -1.7240320000  -0.3772210000
H  5.9217330000  -0.8091320000  1.1371820000
H  2.3028360000  3.3123110000  0.7629110000
H  1.9461910000  -2.7946600000  0.7723170000
H  -0.2900760000  -3.3771930000  1.3271800000
H  -1.1132530000  -1.5662670000  -1.0194230000
H  -2.9128680000  -0.3586450000  -1.1314050000
H  -2.3123720000  1.1776920000  1.4287450000
H  -0.8406340000  1.1828280000  -1.2646870000