9
charge=0, multiplicity=2, basis=def2-QZVPP, AUX_BASIS_CORR=rimp2-def2-QZVPPD, SCF_ALGORITHM=GDM, xc_grid=000099000590, mem_total=3750, num_basis=378, num_pairs=70384, num_threads=1
O  1.5267870000  -0.5201640000  0.0000010000
C  0.9419770000  0.5000660000  -0.0000020000
C  -0.5512940000  0.7303870000  0.0000010000
C  -1.3780710000  -0.5515750000  0.0000000000
H  -0.7627200000  1.3581720000  -0.8701560000
H  -0.7627170000  1.3581680000  0.8701600000
H  -1.1606210000  -1.1567520000  -0.8807630000
H  -2.4432870000  -0.3147910000  0.0000030000
H  -1.1606160000  -1.1567560000  0.8807590000