54
charge=-1, multiplicity=1, basis=def2-QZVPP, mem_total=120000, AUX_BASIS_CORR=rimp2-def2-QZVPPD, SCF_ALGORITHM=GDM, xc_grid=000099000590, num_basis=2376, num_pairs=1374745, num_threads=32
C  0.9611860000  1.8805940000  1.5989270000
C  -0.0089520000  0.8226920000  0.9947850000
C  0.2235190000  0.5534240000  -0.4528930000
O  0.4630610000  1.5368470000  -1.2616770000
C  0.6499560000  2.8386750000  -0.6652520000
C  1.6124240000  2.7615610000  0.5108170000
H  -0.3374420000  3.2059370000  -0.3733270000
C  -3.2904300000  0.1148290000  -0.6307310000
C  -3.9318780000  -0.1146470000  0.7586570000
C  -5.2760920000  -0.8528130000  0.6813310000
C  -6.1791950000  -0.1512430000  -0.3253410000
O  -5.5874440000  -0.1116010000  -1.5947280000
C  -4.3766250000  0.6685290000  -1.5702510000
H  -4.6088350000  1.6974230000  -1.2629030000
O  1.9304280000  1.2697610000  2.4049370000
H  0.3403560000  2.5478770000  2.2129600000
H  1.4867300000  0.4533710000  2.7055330000
O  2.8766780000  2.3138700000  0.0896630000
H  1.7554130000  3.7727890000  0.9002070000
H  2.8117800000  1.3440520000  0.0053110000
O  -2.2330940000  0.9530970000  -0.6033080000
H  -3.0307990000  -0.9019270000  -1.0183030000
O  -3.0804220000  -0.8309500000  1.6464550000
H  -4.0780610000  0.8759350000  1.2014400000
H  -3.2678160000  -1.7649440000  1.4706560000
O  -7.3881360000  -0.8543060000  -0.4384250000
H  -6.3709120000  0.8831100000  0.0090430000
H  -7.7677970000  -0.6072780000  -1.2873210000
O  2.0656310000  -0.1872820000  -0.3690730000
C  2.3489350000  -1.4296540000  -0.1832870000
O  1.5446120000  -2.3046220000  0.1114580000
C  3.8174520000  -1.8033700000  -0.3858480000
C  4.8203140000  -0.6565070000  -0.2454620000
H  3.9047380000  -2.2470290000  -1.3844210000
H  4.0600770000  -2.5872110000  0.3299160000
C  6.2337460000  -1.2525930000  -0.2256190000
O  6.6601290000  -1.9242070000  0.6743670000
O  6.9377470000  -0.9750040000  -1.3234050000
H  6.3298870000  -0.3965870000  -1.8499140000
N  4.7308450000  0.2981080000  -1.3599070000
H  4.6647270000  -0.1718840000  0.7224500000
H  4.8453400000  1.2491230000  -1.0238710000
H  3.7998890000  0.2678370000  -1.7606860000
N  -5.0313920000  -2.2581960000  0.3621890000
H  -5.7565670000  -0.8162850000  1.6639320000
H  -5.8869850000  -2.7894320000  0.4677130000
H  -4.7511770000  -2.3399680000  -0.6100330000
N  -0.0606130000  -0.3704170000  1.8171050000
H  0.3912640000  -1.1597600000  1.3590240000
H  -1.0353090000  -0.6154600000  1.9717970000
H  1.0579410000  3.4528650000  -1.4641490000
H  -4.0006500000  0.6875120000  -2.5909310000
H  -1.0163200000  1.2550350000  0.9370130000
H  -0.1510120000  -0.3432430000  -0.9159490000