14
charge=0, multiplicity=1, basis=def2-QZVPP, AUX_BASIS_CORR=rimp2-def2-QZVPPD, SCF_ALGORITHM=GDM, xc_grid=000099000590, mem_total=3750, num_basis=636, num_pairs=179226, num_threads=1
C  -2.2053800000  -0.2440270000  -0.0001070000
C  -1.3236530000  -1.3214920000  -0.0000590000
C  0.0413070000  -1.0978850000  0.0000080000
C  0.5291120000  0.2081180000  0.0000280000
C  -0.3547080000  1.2825150000  -0.0000180000
C  -1.7236160000  1.0576550000  -0.0000870000
H  -3.2740050000  -0.4228310000  -0.0001600000
H  -1.7078920000  -2.3341340000  -0.0000740000
H  0.7490220000  -1.9176440000  0.0000440000
H  0.0337250000  2.2955090000  -0.0000010000
H  -2.4128930000  1.8928750000  -0.0001250000
C  1.9849320000  0.4639800000  0.0000980000
O  2.8319190000  -0.3928520000  0.0001270000
H  2.2687340000  1.5358590000  0.0001240000