40
charge=-1, multiplicity=1, basis=def2-QZVPP, mem_total=60000, AUX_BASIS_CORR=rimp2-def2-QZVPPD, SCF_ALGORITHM=GDM, xc_grid=000099000590, num_basis=1605, num_pairs=927096, num_threads=16
C  3.8815090000  -0.6004830000  0.8314770000
C  2.6331890000  -0.1058750000  0.1035850000
H  3.6095540000  -1.2566030000  1.6633010000
H  4.4572470000  0.2366500000  1.2395270000
H  4.5390510000  -1.1627930000  0.1573750000
C  3.0603310000  0.8091500000  -1.0489280000
H  3.6118530000  1.6745110000  -0.6684930000
H  2.1967640000  1.1877820000  -1.5972430000
H  3.7077350000  0.2747220000  -1.7536860000
C  1.7882080000  -1.2688020000  -0.4319860000
C  0.3747110000  -0.7190180000  -0.5889990000
H  1.7723370000  -2.0717890000  0.3178350000
H  2.2045150000  -1.7000110000  -1.3536520000
C  -0.6700150000  -1.8427430000  -0.7591270000
C  -2.0449440000  -1.3351490000  -0.3901550000
H  -0.4071210000  -2.6817300000  -0.1029010000
H  -0.6296570000  -2.2341720000  -1.7840590000
C  -2.6888410000  -1.9598520000  0.8147780000
H  -2.8359430000  -3.0350830000  0.6546530000
H  -3.6585840000  -1.5140350000  1.0397770000
H  -2.0525040000  -1.8547330000  1.6999550000
C  -2.4569400000  -0.1935510000  -0.9360510000
C  -3.2061160000  0.8676450000  -0.2073130000
C  -2.1725030000  1.3994090000  0.8965010000
H  -4.1260370000  0.5206620000  0.2798580000
H  -3.4821490000  1.6830280000  -0.8819790000
C  -0.7112400000  1.4996020000  0.5608410000
H  -2.2944950000  0.7308380000  1.7587270000
H  -2.5629300000  2.3820090000  1.2115070000
C  0.1678590000  0.2617300000  0.6521130000
C  -0.4134030000  2.4045120000  -0.5969570000
H  -0.9785180000  3.3435470000  -0.5151760000
H  -0.6585680000  2.0087920000  -1.6260910000
H  0.6472810000  2.6858200000  -0.6552580000
C  1.6440220000  0.6229830000  1.0414920000
H  1.8261070000  0.3312950000  2.0811040000
H  1.7733490000  1.7048610000  1.0003900000
H  0.3375200000  -0.1014820000  -1.4926790000
H  -0.2356180000  -0.3638630000  1.4600930000
H  -1.8761650000  0.1744400000  -1.7805200000