16
charge=-1, multiplicity=1, basis=def2-QZVPP, mem_total=7500, AUX_BASIS_CORR=rimp2-def2-QZVPPD, SCF_ALGORITHM=GDM, xc_grid=000099000590, num_basis=723, num_pairs=221634, num_threads=2
C  0.2677850000  0.0207010000  -0.0097440000
C  1.7927010000  -0.0724460000  -0.0217320000
O  2.2620590000  -1.2305920000  -0.2395670000
C  2.5022090000  1.0803900000  0.2261600000
C  -0.4590460000  1.2076420000  -0.1248430000
C  -1.8474640000  1.2077430000  -0.1073780000
C  -2.5498420000  0.0142770000  0.0219300000
C  -1.8400550000  -1.1763160000  0.1245260000
C  -0.4520650000  -1.1691060000  0.1008710000
H  0.0728920000  2.1430680000  -0.2444660000
H  -2.3865640000  2.1453230000  -0.2036210000
H  -3.6348780000  0.0132220000  0.0339060000
H  -2.3739400000  -2.1173200000  0.2179450000
H  0.1311450000  -2.0806190000  0.1547120000
H  3.5849830000  1.0413320000  0.2406730000
H  2.0245490000  2.0224230000  0.4586430000