47
charge=-1, multiplicity=1, basis=def2-QZVPP, mem_total=120000, AUX_BASIS_CORR=rimp2-def2-QZVPPD, SCF_ALGORITHM=GDM, xc_grid=000099000590, num_basis=2220, num_pairs=1475092, num_threads=32
C  -0.4511250000  0.1689680000  2.1099980000
N  -1.7971700000  0.5542270000  1.8873660000
C  -2.2514300000  1.5896350000  1.1108880000
N  -1.2698850000  2.2865760000  0.4783140000
C  0.1138840000  1.9372860000  0.4933820000
C  0.5192280000  0.9774650000  1.4666030000
H  1.5554940000  0.8545040000  1.7293110000
O  -3.4403400000  1.8585570000  1.0007850000
C  0.9695850000  3.1242190000  0.2070800000
H  0.3197320000  1.3397380000  -0.6728530000
O  0.5650140000  4.1279600000  -0.3289660000
O  2.2475330000  2.9405350000  0.5531740000
N  0.5067010000  0.2498670000  -1.4744670000
C  1.6181460000  -0.3136860000  -0.9606170000
C  1.6657800000  -1.5272990000  -0.2109570000
N  0.4778630000  -2.1874600000  -0.0010300000
C  -0.7033700000  -1.6239200000  -0.4591970000
C  -0.6683270000  -0.4535840000  -1.2335810000
C  -1.8670100000  0.0859730000  -1.7066350000
C  -1.9473680000  -2.1898040000  -0.1662720000
C  -3.1290770000  -1.6098130000  -0.5924440000
C  -3.0957340000  -0.4516770000  -1.3929500000
C  2.8838320000  0.3661690000  -1.2174090000
N  3.9713880000  -0.2797070000  -0.6765240000
C  3.9660900000  -1.4928010000  0.0338740000
N  2.7653070000  -2.0940310000  0.2386990000
O  5.0357760000  -1.9367580000  0.4178110000
O  3.0032730000  1.4143610000  -1.8332130000
C  -4.3616580000  0.2297380000  -1.8285650000
H  -5.0677850000  -0.4672610000  -2.2878540000
H  -4.1445560000  1.0173440000  -2.5507850000
H  -4.8505970000  0.6973880000  -0.9694590000
C  -4.4455810000  -2.2056240000  -0.1785870000
H  -5.0318460000  -2.5251330000  -1.0451680000
H  -5.0500200000  -1.4733670000  0.3636170000
H  -4.2981920000  -3.0715930000  0.4674820000
C  0.4446310000  -3.3847230000  0.8257390000
H  -0.0856730000  -3.1762530000  1.7557920000
H  1.4720820000  -3.6510440000  1.0485890000
H  -0.0395580000  -4.2000840000  0.2828580000
H  4.8745840000  0.1498770000  -0.8145590000
H  -1.7969250000  0.9900960000  -2.3000430000
H  -1.9964070000  -3.0684990000  0.4602530000
H  -2.5013480000  -0.0108000000  2.3353570000
H  -1.5553930000  3.0670590000  -0.0926780000
O  -0.2509520000  -0.7985370000  2.8431620000
H  2.7715620000  3.6136350000  0.0995110000