47
charge=0, multiplicity=1, basis=def2-QZVPP, mem_total=60000, AUX_BASIS_CORR=rimp2-def2-QZVPPD, SCF_ALGORITHM=GDM, xc_grid=000099000590, num_basis=1923, num_pairs=904215, num_threads=16
C  -1.5071250000  -1.4213650000  0.8332010000
C  -2.7121820000  -0.7561480000  1.5144930000
C  -3.0722910000  0.5151920000  0.8152020000
C  0.7074260000  -1.2191540000  -1.2757580000
C  -1.6892030000  -1.7673980000  -0.6462200000
H  -3.5711420000  -1.4325650000  1.4740580000
H  -1.2606320000  -2.3375630000  1.3835620000
H  -0.6424340000  -0.7589950000  0.9410940000
H  -1.9728630000  -0.8523510000  -1.1796890000
H  -0.0162200000  -3.1415450000  -0.7003710000
H  -0.5628420000  -2.5940080000  -2.2781040000
C  -0.3644480000  -2.2614060000  -1.2524580000
C  -2.7906740000  -2.8015860000  -0.8633030000
H  -2.8884040000  -3.0516090000  -1.9222370000
H  -3.7619290000  -2.4405700000  -0.5207550000
H  -2.5674580000  -3.7261020000  -0.3214030000
C  -4.2545790000  0.8039620000  0.2793420000
C  1.8888910000  -1.3124610000  -0.6646570000
C  4.0891820000  -0.3878180000  -0.0659440000
C  2.9103920000  -0.2810680000  -0.6918440000
C  -4.5051920000  2.1037800000  -0.3952680000
O  -3.6452410000  2.9502560000  -0.5080340000
C  5.1555800000  0.6131260000  -0.0497360000
C  6.2769110000  0.3385240000  0.6313700000
H  6.3194030000  -0.6253550000  1.1340210000
C  4.9173590000  1.8910860000  -0.8040950000
H  4.7345870000  1.6855420000  -1.8621560000
H  5.7587990000  2.5764530000  -0.7379310000
H  4.0336620000  2.4068880000  -0.4192370000
C  7.4970610000  1.1844900000  0.8000180000
H  8.3812500000  0.6624560000  0.4213630000
H  7.6827280000  1.3832130000  1.8600820000
H  7.4317320000  2.1430450000  0.2881050000
C  -5.8964700000  2.3122470000  -0.9391490000
H  -6.6299160000  2.2299850000  -0.1323410000
H  -6.1330200000  1.5326990000  -1.6686440000
H  -5.9710270000  3.2910270000  -1.4078820000
C  -2.3959480000  -0.4713050000  2.9868170000
H  -3.2532730000  -0.0304470000  3.4985210000
H  -2.1249400000  -1.3943530000  3.5043420000
H  -1.5557720000  0.2223710000  3.0764620000
H  -5.0730770000  0.0908160000  0.3203090000
H  -2.2921350000  1.2721760000  0.7410920000
H  4.2938660000  -1.2997380000  0.4907100000
H  2.6731700000  0.6153840000  -1.2570330000
H  0.4802550000  -0.3116240000  -1.8340120000
H  2.1214400000  -2.2134830000  -0.0997260000