18
charge=0, multiplicity=1, basis=def2-QZVPP, mem_total=7500, AUX_BASIS_CORR=rimp2-def2-QZVPPD, SCF_ALGORITHM=GDM, xc_grid=000099000590, num_basis=810, num_pairs=261633, num_threads=2
C  -3.5518140000  -0.5631570000  0.0283920000
C  -2.2479050000  -0.7387480000  0.1993580000
C  -1.2955440000  0.3872880000  -0.0244270000
O  -1.7021470000  1.5158870000  -0.2091560000
C  0.1732930000  0.1081440000  -0.0020260000
C  0.7024780000  -1.1766930000  -0.1106630000
C  2.0765910000  -1.3707360000  -0.1114410000
C  2.9311880000  -0.2846630000  0.0084540000
C  2.4109350000  1.0001420000  0.1177360000
C  1.0412830000  1.1950460000  0.1051420000
H  0.6148790000  2.1872590000  0.1765480000
H  3.0772740000  1.8491260000  0.2097260000
H  4.0037290000  -0.4378630000  0.0145890000
H  2.4793690000  -2.3716510000  -0.2062360000
H  0.0512680000  -2.0340100000  -0.2165660000
H  -1.8590650000  -1.6964270000  0.5198390000
H  -3.9334490000  0.4014370000  -0.2858520000
H  -4.2598640000  -1.3646990000  0.1980440000