23
charge=0, multiplicity=2, basis=def2-QZVPP, AUX_BASIS_CORR=rimp2-def2-QZVPPD, SCF_ALGORITHM=GDM, xc_grid=000099000590, mem_total=15000, num_basis=906, num_pairs=356152, num_threads=4
C  0.1238910000  -1.0285370000  -0.8049950000
C  1.0224430000  -0.1203910000  -0.0110910000
C  0.4044410000  1.2882090000  -0.1024930000
C  -1.0738040000  1.2239120000  0.2659660000
H  0.5040530000  1.6433560000  -1.1344450000
H  0.9465850000  1.9973650000  0.5307050000
C  -1.7733810000  0.1063240000  -0.4685660000
H  -0.0756170000  -2.0273320000  -0.4337250000
H  0.1694410000  -0.9488300000  -1.8875370000
H  -1.5629390000  2.1728030000  0.0244150000
H  -1.1960750000  1.0792090000  1.3422640000
C  1.0940290000  -0.5876250000  1.4462480000
H  1.6743330000  0.1131020000  2.0524880000
H  1.5759780000  -1.5663180000  1.5090100000
H  0.1018490000  -0.6816770000  1.8901890000
C  2.4388570000  -0.0969930000  -0.6047680000
H  3.0791300000  0.5932340000  -0.0471440000
H  2.4202460000  0.2275970000  -1.6479640000
H  2.8973380000  -1.0876820000  -0.5667660000
C  -2.6768460000  -0.7147840000  0.1353910000
H  -2.7536310000  -0.7641410000  1.2160760000
H  -3.2908580000  -1.3992850000  -0.4362370000
H  -1.8476130000  0.2279150000  -1.5454910000