43
charge=0, multiplicity=1, basis=def2-QZVPP, mem_total=120000, AUX_BASIS_CORR=rimp2-def2-QZVPPD, SCF_ALGORITHM=GDM, xc_grid=000099000590, num_basis=1965, num_pairs=1013222, num_threads=32
C  5.6902990000  -0.5088880000  -0.9652210000
C  4.5977840000  -0.8662470000  -1.7416360000
C  3.3038280000  -0.7043450000  -1.2704120000
C  3.0835390000  -0.1740850000  0.0036760000
C  4.1890270000  0.1858000000  0.7808910000
C  5.4770380000  0.0185970000  0.3002850000
H  6.6973770000  -0.6392810000  -1.3413060000
H  4.7485180000  -1.2792230000  -2.7318220000
H  2.4611740000  -0.9844440000  -1.8837500000
H  4.0539280000  0.6029640000  1.7717240000
H  6.3175130000  0.3045670000  0.9209730000
C  1.7171860000  0.0028640000  0.5239160000
C  0.4659010000  -0.2420830000  -0.1826370000
O  0.3567280000  -0.6327440000  -1.3120110000
O  -0.5979470000  0.0580830000  0.6143570000
N  1.5829740000  0.4482850000  1.7523050000
N  1.5004650000  0.8308210000  2.8028030000
C  -1.8761210000  -0.1976170000  0.1078730000
C  -2.6713970000  0.8269750000  -0.2003920000
C  -2.2551050000  -1.6188090000  0.0804350000
C  -3.1889650000  -2.0945600000  -0.8402440000
C  -1.6865220000  -2.5151940000  0.9854200000
C  -3.5621290000  -3.4284030000  -0.8386500000
H  -3.6008800000  -1.4208720000  -1.5808600000
C  -2.0578050000  -3.8506300000  0.9823120000
H  -0.9587670000  -2.1591660000  1.7034590000
C  -2.9994360000  -4.3119980000  0.0733280000
H  -4.2829810000  -3.7841800000  -1.5648570000
H  -1.6109090000  -4.5332820000  1.6949430000
H  -3.2865900000  -5.3563650000  0.0684670000
C  -2.3556310000  2.2445420000  -0.2098700000
C  -0.9828960000  2.8589100000  -0.0212940000
C  -3.2808740000  3.1980210000  -0.3640420000
C  -1.1911270000  4.3296430000  -0.4296600000
H  -0.2188350000  2.3726460000  -0.6292180000
C  -2.7051670000  4.5825470000  -0.2914850000
H  -0.5892840000  5.0204270000  0.1617510000
H  -0.9004730000  4.4562260000  -1.4747440000
H  -2.9552200000  5.0467520000  0.6705520000
H  -3.0937810000  5.2476520000  -1.0666460000
H  -0.6700830000  2.7630660000  1.0230850000
H  -4.3404130000  3.0025220000  -0.4838750000
H  -3.6931840000  0.5732880000  -0.4579620000