34
charge=0, multiplicity=2, basis=def2-QZVPP, AUX_BASIS_CORR=rimp2-def2-QZVPPD, SCF_ALGORITHM=GDM, xc_grid=000099000590, mem_total=60000, num_basis=1465, num_pairs=755922, num_threads=16
O  2.2778260000  -0.4261530000  2.0570810000
C  1.9945360000  -0.6170580000  0.9331620000
C  2.1641910000  0.2983110000  -0.2837900000
C  3.2689720000  -0.3493930000  -1.1333120000
Cl  0.3464730000  -1.9101010000  0.5051970000
C  -1.5856470000  -1.3236270000  -0.2707980000
H  4.1981870000  -0.4356700000  -0.5672960000
H  3.4630000000  0.2659910000  -2.0146400000
H  2.9741460000  -1.3465660000  -1.4641930000
C  -1.4853220000  0.1623320000  -0.1197500000
C  -2.5409080000  -2.0474350000  0.6416260000
C  -1.6231030000  -1.8461380000  -1.6846790000
C  -2.5699050000  0.8231030000  0.4660940000
C  -0.3873130000  0.9421630000  -0.5596760000
H  -2.4295560000  -1.7330560000  1.6788120000
H  -2.3643080000  -3.1221040000  0.5868650000
H  -3.5797970000  -1.8745720000  0.3343510000
H  -0.9051220000  -1.3616700000  -2.3420720000
H  -2.6205890000  -1.6553720000  -2.1002680000
H  -1.4519390000  -2.9233490000  -1.7106410000
C  -2.6213880000  2.2006820000  0.5931450000
C  -1.5678180000  2.9649790000  0.1246260000
C  -0.4766760000  2.3291360000  -0.4433710000
C  0.8941140000  0.4047460000  -1.1759530000
H  -3.4867330000  2.6689790000  1.0460970000
H  -1.5912770000  4.0454710000  0.1963530000
H  0.3427740000  2.9315650000  -0.8163350000
H  -3.4111420000  0.2444180000  0.8208740000
C  2.6313710000  1.6643600000  0.2256630000
H  1.1771100000  1.0848080000  -1.9860530000
H  0.7368590000  -0.5634590000  -1.6363880000
H  3.5600610000  1.5641980000  0.7878360000
H  1.8931190000  2.1213240000  0.8833200000
H  2.8119260000  2.3330550000  -0.6195410000