35
charge=0, multiplicity=1, basis=def2-QZVPP, mem_total=60000, AUX_BASIS_CORR=rimp2-def2-QZVPPD, SCF_ALGORITHM=GDM, xc_grid=000099000590, num_basis=1482, num_pairs=783129, num_threads=16
C  -0.4029470000  1.1430920000  -1.5018680000
N  0.0924270000  -0.0942250000  -0.9198000000
C  -0.4838330000  -1.3517720000  -1.3751480000
C  -1.3728990000  -2.0793180000  -0.3487530000
C  -2.7824070000  -1.5706080000  -0.2711460000
C  -1.8045670000  1.1192660000  1.5145990000
C  -1.9959830000  2.0316520000  0.3395750000
C  -0.7435740000  2.2633570000  -0.5136340000
C  -3.2296210000  -0.6993910000  0.6267000000
C  -2.3718050000  -0.0719260000  1.6599600000
C  1.3629960000  -0.1222040000  -0.3559740000
C  1.8534030000  -1.2859490000  0.2615210000
C  3.1201430000  -1.3222190000  0.8190690000
C  3.9487410000  -0.2093600000  0.7907490000
C  3.4799070000  0.9436540000  0.1802300000
C  2.2151830000  0.9938940000  -0.3850240000
H  0.3143060000  1.5297470000  -2.2405490000
H  -1.3092470000  0.8960470000  -2.0556280000
H  -1.0650140000  -1.1549140000  -2.2790310000
H  0.3289230000  -2.0197570000  -1.6741210000
H  -1.3972780000  -3.1395370000  -0.6213150000
H  -0.9015440000  -2.0088690000  0.6320090000
H  -2.3226890000  3.0042380000  0.7234260000
H  -2.8037910000  1.6597450000  -0.2955950000
H  -0.8962130000  3.1678140000  -1.1115250000
H  0.1062400000  2.4686550000  0.1399630000
H  1.2383110000  -2.1716440000  0.3207840000
H  3.4590860000  -2.2385920000  1.2885150000
H  4.9363750000  -0.2413910000  1.2325530000
H  4.1087660000  1.8253370000  0.1320880000
H  1.9044910000  1.9088150000  -0.8656820000
H  -2.1881700000  -0.6372980000  2.5703800000
H  -1.1580120000  1.4888350000  2.3068340000
H  -4.2788370000  -0.4139540000  0.6018730000
H  -3.4791170000  -1.9566980000  -1.0115140000