12
charge=0, multiplicity=2, basis=def2-QZVPP, AUX_BASIS_CORR=rimp2-def2-QZVPPD, SCF_ALGORITHM=GDM, xc_grid=000099000590, mem_total=3750, num_basis=495, num_pairs=119887, num_threads=1
C  1.1075380000  -0.6694710000  0.1171940000
C  0.9463030000  0.8343600000  0.1947100000
C  -0.3181600000  -0.7314340000  -0.4547050000
H  1.2781980000  -1.2250960000  1.0449760000
H  1.8674740000  -0.9701420000  -0.6106300000
C  -0.4218430000  0.8067210000  -0.3518040000
H  1.6816140000  1.6247950000  0.2211770000
C  -1.2919780000  -0.1162680000  0.4838620000
H  -0.6282040000  -1.3531000000  -1.2834520000
H  -1.1294180000  -0.1713500000  1.5553440000
H  -2.3308920000  -0.1596270000  0.1776630000
H  -0.8699350000  1.5110800000  -1.0406230000