14
charge=1, multiplicity=1, basis=def2-QZVPP, AUX_BASIS_CORR=rimp2-def2-QZVPPD, SCF_ALGORITHM=GDM, xc_grid=000099000590, mem_total=3750, num_basis=609, num_pairs=170548, num_threads=1
C  1.5600160000  -0.3616840000  0.0000380000
C  1.2554290000  0.9941480000  0.0000240000
C  0.0054840000  1.6013640000  0.0000130000
C  0.6898740000  -1.4451580000  0.0000210000
C  -1.2485930000  1.0027260000  -0.0000140000
C  -0.6997530000  -1.4404000000  -0.0000290000
C  -1.5624570000  -0.3509970000  -0.0000530000
H  2.6168250000  -0.6067050000  0.0000590000
H  2.1059010000  1.6676280000  0.0000260000
H  0.0092030000  2.6861990000  0.0000240000
H  1.1572100000  -2.4241760000  0.0000410000
H  -2.0944310000  1.6820180000  -0.0000120000
H  -1.1737840000  -2.4161940000  -0.0000460000
H  -2.6209200000  -0.5887700000  -0.0000930000