27
charge=-1, multiplicity=1, basis=def2-QZVPP, mem_total=30000, AUX_BASIS_CORR=rimp2-def2-QZVPPD, SCF_ALGORITHM=GDM, xc_grid=000099000590, num_basis=1188, num_pairs=468984, num_threads=8
C  1.7897900000  0.2999950000  0.1311700000
C  1.1271650000  1.6594480000  0.1909860000
C  -0.0168160000  1.8081140000  0.9868400000
O  1.5901290000  2.5526870000  -0.5549920000
C  -1.4618900000  1.5051010000  -0.5729500000
C  -2.4683170000  0.7891560000  -0.4010430000
C  -3.0537100000  -0.0699590000  0.6280090000
O  -4.3032190000  -0.6885630000  0.2914790000
C  -4.2069300000  -1.5055430000  -0.8447180000
H  -0.3431970000  2.8204150000  1.1904710000
H  -0.2681040000  1.0639910000  1.7315090000
H  -0.9175900000  2.1452750000  -1.2452320000
H  -2.3450990000  -0.8712130000  0.8993970000
H  -3.2710350000  0.5040140000  1.5328180000
H  -5.2038210000  -1.8998310000  -1.0494440000
H  -3.8471470000  -0.9359080000  -1.7087320000
H  -3.5176800000  -2.3475470000  -0.6744290000
C  3.0991870000  0.2269390000  -0.3411030000
C  3.7666050000  -0.9869890000  -0.4150470000
C  3.1264640000  -2.1607230000  -0.0351000000
C  1.8128740000  -2.1036640000  0.4152700000
C  1.1530760000  -0.8853970000  0.4987040000
H  3.5655450000  1.1523300000  -0.6560410000
H  4.7887810000  -1.0207760000  -0.7777480000
H  3.6421580000  -3.1127670000  -0.0994340000
H  1.2950390000  -3.0153470000  0.6937930000
H  0.1218790000  -0.8544980000  0.8250800000