22
charge=0, multiplicity=2, basis=def2-QZVPP, AUX_BASIS_CORR=rimp2-def2-QZVPPD, SCF_ALGORITHM=GDM, xc_grid=000099000590, mem_total=15000, num_basis=876, num_pairs=304604, num_threads=4
C  1.6914770000  -0.3698180000  0.0180840000
C  1.3555820000  1.0963410000  0.2644070000
C  -0.0650490000  1.4270520000  -0.1853450000
H  2.0903620000  1.7300290000  -0.2384060000
H  1.4742990000  1.2836950000  1.3384340000
C  -1.0431450000  0.4033210000  0.3319190000
H  -0.3317390000  2.4393490000  0.1433350000
H  -0.0996080000  1.4338790000  -1.2798840000
C  -2.3435870000  0.2293360000  -0.4056680000
H  -1.1522310000  0.4141330000  1.4199350000
N  0.8207130000  -1.2794730000  -0.0352450000
C  3.1514120000  -0.7062040000  -0.1381430000
H  3.5526490000  -0.2220630000  -1.0325890000
H  3.2893350000  -1.7825250000  -0.2183070000
H  3.7182710000  -0.3294840000  0.7177720000
C  -3.1999880000  -0.9039710000  0.1497540000
H  -2.1333470000  0.0509540000  -1.4659490000
H  -2.9125680000  1.1700230000  -0.3686200000
H  -0.2655690000  -0.6997870000  0.1346750000
H  -4.1362750000  -1.0031620000  -0.4030230000
H  -3.4490870000  -0.7280890000  1.1994390000
H  -2.6696910000  -1.8569830000  0.0898480000