16
charge=0, multiplicity=2, basis=def2-QZVPP, AUX_BASIS_CORR=rimp2-def2-QZVPPD, SCF_ALGORITHM=GDM, xc_grid=000099000590, mem_total=7500, num_basis=723, num_pairs=221439, num_threads=2
N  -0.5321070000  -1.1524270000  0.0876290000
H  0.0205280000  -2.0004850000  -0.0246510000
C  0.2410320000  -0.0218950000  0.2105390000
C  -0.3543630000  1.2996490000  0.5747800000
C  1.6595200000  -0.2988320000  -0.0152910000
H  -1.0414980000  1.1631190000  1.4159020000
H  0.4352600000  1.9689840000  0.9138910000
O  2.0502930000  -1.4550450000  -0.1454460000
H  -1.8322500000  1.4605250000  -0.6418340000
N  2.5129800000  0.7650320000  -0.0441170000
H  3.4608690000  0.5555590000  -0.3151350000
H  2.1717500000  1.6906570000  -0.2435540000
C  -1.8876190000  -1.2316610000  -0.0327270000
H  -2.2412140000  -2.2697380000  -0.1018600000
O  -2.6437470000  -0.2822390000  -0.0677270000
O  -1.0054190000  1.9447310000  -0.5032210000