15
charge=0, multiplicity=2, basis=def2-QZVPP, AUX_BASIS_CORR=rimp2-def2-QZVPPD, SCF_ALGORITHM=GDM, xc_grid=000099000590, mem_total=3750, num_basis=612, num_pairs=176177, num_threads=1
O  -1.9581750000  0.0000030000  -0.1942560000
O  -0.8302700000  0.0000190000  -0.8429230000
C  0.3609160000  -0.0000020000  0.0455210000
C  1.5112480000  -0.0000280000  -0.9425920000
C  0.3167720000  -1.2625250000  0.8871520000
C  0.3168150000  1.2625350000  0.8871350000
H  0.3090080000  2.1497910000  0.2517720000
H  1.1970740000  1.3057970000  1.5310330000
H  -0.5742960000  1.2714700000  1.5141990000
H  0.3087870000  -2.1497810000  0.2517910000
H  -0.5742610000  -1.2713650000  1.5143280000
H  1.1971100000  -1.3058830000  1.5309350000
H  1.4748020000  -0.8860920000  -1.5780290000
H  2.4601080000  0.0000620000  -0.4037360000
H  1.4747130000  0.8859390000  -1.5781610000