16
charge=0, multiplicity=1, basis=def2-QZVPP, AUX_BASIS_CORR=rimp2-def2-QZVPPD, SCF_ALGORITHM=GDM, xc_grid=000099000590, mem_total=7500, num_basis=669, num_pairs=198856, num_threads=2
H  2.7725640000  0.1910670000  -0.3088390000
C  -0.2518850000  -1.1858220000  -0.0266770000
C  -0.9661990000  -0.0568000000  0.0382070000
H  1.6176490000  2.1783680000  -0.0492640000
H  1.4662060000  -1.2961200000  1.2686110000
H  -0.7307150000  -2.1453220000  -0.1842180000
C  -2.4590420000  -0.0294680000  -0.1047800000
C  1.2374870000  -1.1598980000  0.1952470000
C  -0.2668900000  1.2153080000  0.1981970000
N  1.7701700000  0.1074070000  -0.2913620000
C  1.0598460000  1.2500350000  -0.0154520000
H  1.7258960000  -1.9731240000  -0.3446000000
H  -0.8172660000  2.1305930000  0.3655700000
H  -2.9202670000  0.4212140000  0.7789790000
H  -2.8673350000  -1.0329850000  -0.2290090000
H  -2.7578240000  0.5743330000  -0.9661580000