35
charge=0, multiplicity=2, basis=def2-QZVPP, AUX_BASIS_CORR=rimp2-def2-QZVPPD, SCF_ALGORITHM=GDM, xc_grid=000099000590, mem_total=60000, num_basis=1508, num_pairs=695957, num_threads=16
N  1.1807050000  -0.1863340000  -0.4718440000
S  1.3825080000  1.1573690000  0.5235080000
O  0.3319770000  2.1497400000  -0.1656840000
C  0.5824860000  2.5539720000  -1.5219100000
C  2.1476580000  -1.3244240000  -0.3551290000
Cl  -0.6936820000  -0.7628690000  -0.1162460000
O  0.8963840000  0.9835400000  1.8674030000
O  2.7208410000  1.6604700000  0.2984890000
C  -2.7418450000  -1.0818150000  0.9326900000
C  -3.6055090000  -1.2220860000  -0.1976010000
C  -4.3311300000  -0.2378330000  -0.7066570000
H  0.4701630000  1.6978130000  -2.1865700000
H  1.5815430000  2.9806910000  -1.6084040000
H  -0.1710780000  3.3074360000  -1.7349770000
C  2.3283880000  -1.8133890000  1.0811100000
C  3.4886740000  -0.8704760000  -0.9532920000
C  1.6052330000  -2.4493210000  -1.2392220000
H  -2.4061590000  -2.0085160000  1.3825720000
C  -2.7718280000  0.1213130000  1.8128650000
H  -3.6484730000  -2.1902740000  -0.6877380000
H  -1.8484840000  0.2108780000  2.3839950000
H  -3.6088640000  0.0387380000  2.5161240000
H  -2.9072300000  1.0350290000  1.2341110000
H  2.7941010000  -1.0538350000  1.7101610000
H  2.9695180000  -2.6971290000  1.0873760000
H  1.3675060000  -2.0793600000  1.5232100000
H  4.1454230000  -1.7404940000  -1.0162870000
H  3.3403190000  -0.4755050000  -1.9594210000
H  3.9714940000  -0.1065610000  -0.3513640000
H  0.7100860000  -2.9017720000  -0.8177150000
H  1.3687310000  -2.0733970000  -2.2357080000
H  2.3695970000  -3.2223180000  -1.3327760000
C  -5.0358130000  0.7234330000  -1.2103270000
H  -6.0529040000  0.9135530000  -0.8812970000
H  -4.6292580000  1.3739750000  -1.9791710000