35
charge=0, multiplicity=1, basis=def2-QZVPP, mem_total=60000, AUX_BASIS_CORR=rimp2-def2-QZVPPD, SCF_ALGORITHM=GDM, xc_grid=000099000590, num_basis=1482, num_pairs=783232, num_threads=16
C  0.1945980000  1.4369830000  1.3133280000
N  -0.3154860000  0.1041840000  1.0243520000
C  0.3564750000  -1.0462280000  1.6064070000
C  1.3926910000  -1.7168610000  0.7014820000
C  2.4583300000  -0.7318740000  0.2631870000
C  2.0757040000  0.2979690000  -0.8633210000
C  2.0334840000  1.7714850000  -0.4917180000
C  0.6944930000  2.2229320000  0.0945420000
C  3.5629290000  -1.1689020000  -0.6771840000
C  3.2828910000  -0.2494190000  -1.5995000000
C  -1.5220710000  -0.0540360000  0.3629500000
C  -2.3558840000  1.0409750000  0.0764530000
C  -3.5679830000  0.8657800000  -0.5713280000
C  -3.9991710000  -0.3927150000  -0.9637330000
C  -3.1816300000  -1.4809260000  -0.6941460000
C  -1.9658930000  -1.3227120000  -0.0503560000
H  -0.5773420000  2.0241730000  1.8252810000
H  1.0102630000  1.3253610000  2.0294520000
H  0.8599280000  -0.7076330000  2.5166840000
H  -0.3934110000  -1.7725520000  1.9279580000
H  1.8495690000  -2.5434510000  1.2572260000
H  0.9128440000  -2.1522160000  -0.1801060000
H  2.2322610000  2.3718010000  -1.3856830000
H  2.8491720000  1.9893910000  0.2078740000
H  0.7721930000  3.2754650000  0.3858990000
H  -0.0657490000  2.1775980000  -0.6890690000
H  -2.0670620000  2.0399930000  0.3669460000
H  -4.1847380000  1.7352580000  -0.7682740000
H  -4.9458260000  -0.5218620000  -1.4722930000
H  -3.4871200000  -2.4761600000  -0.9962410000
H  -1.3525610000  -2.1958160000  0.1177100000
H  3.7321830000  0.0139970000  -2.5502010000
H  4.3143490000  -1.9461630000  -0.6009120000
H  1.1366920000  0.0126640000  -1.3481300000
H  2.8589880000  -0.2138520000  1.1430320000