11
charge=0, multiplicity=2, basis=def2-QZVPP, AUX_BASIS_CORR=rimp2-def2-QZVPPD, SCF_ALGORITHM=GDM, xc_grid=000099000590, mem_total=3750, num_basis=519, num_pairs=126737, num_threads=1
C  0.7671270000  1.2303780000  -0.0150000000
C  -0.7671300000  1.2303780000  -0.0150090000
C  1.1427400000  -0.2476510000  -0.0306380000
N  0.0000000000  -0.9763240000  -0.4068380000
C  -1.1427400000  -0.2476500000  -0.0306420000
O  -2.2091360000  -0.7353480000  0.2150470000
O  2.2091400000  -0.7353440000  0.2150420000
H  1.2105720000  1.6895140000  0.8681740000
H  1.2015880000  1.7140190000  -0.8907090000
H  -1.2015790000  1.7140150000  -0.8907270000
H  -1.2105890000  1.6895240000  0.8681530000