22
charge=-1, multiplicity=1, basis=def2-QZVPP, mem_total=15000, AUX_BASIS_CORR=rimp2-def2-QZVPPD, SCF_ALGORITHM=GDM, xc_grid=000099000590, num_basis=1011, num_pairs=414287, num_threads=4
C  -0.9818240000  -0.1894790000  -0.5986960000
C  0.1029020000  -1.2467180000  -0.3631420000
C  1.4916400000  -0.7237430000  -0.7065220000
H  -0.1136940000  -2.0887850000  -1.0270720000
H  0.0727490000  -1.6278950000  0.6595920000
C  1.9300600000  0.3980080000  0.2429870000
C  0.8784720000  1.5081900000  0.2291890000
C  -0.3739320000  1.1814910000  0.8376310000
O  -1.1005260000  0.3191930000  -1.7280580000
C  -2.2315470000  -0.4430290000  0.2378280000
O  -2.3453340000  -1.2566920000  1.1308110000
O  -3.2749480000  0.3327180000  -0.1162350000
O  1.0965980000  2.4991960000  -0.4630730000
O  2.1900160000  -0.1598060000  1.5415690000
H  2.8770070000  0.8134110000  -0.0983550000
O  2.4631570000  -1.7670420000  -0.6705940000
H  1.4794610000  -0.3302970000  -1.7230710000
H  -3.9870270000  0.0874130000  0.4884700000
H  2.6697220000  -1.8914890000  0.2635510000
H  1.3657390000  -0.1626180000  2.0356370000
H  -1.1124590000  1.9758500000  0.8298320000
H  -0.3778150000  0.5755590000  1.7404140000