15
charge=-1, multiplicity=1, basis=def2-QZVPP, AUX_BASIS_CORR=rimp2-def2-QZVPPD, SCF_ALGORITHM=GDM, xc_grid=000099000590, mem_total=7500, num_basis=693, num_pairs=208324, num_threads=2
O  3.0038170000  0.0387470000  0.1305070000
C  1.8012240000  -0.1894010000  -0.0916590000
O  1.2593110000  -1.2171100000  -0.5615860000
C  0.8155500000  0.9580200000  0.2637530000
C  -0.5482750000  0.7409730000  -0.3603470000
H  1.2379780000  1.9064170000  -0.0827630000
H  0.7203800000  1.0159770000  1.3509740000
C  -1.2020960000  -0.4987830000  0.2196990000
O  -1.2110570000  -0.8347550000  1.3722120000
O  -1.9411300000  -1.1581850000  -0.7106030000
H  -2.2958410000  -1.9345470000  -0.2585350000
N  -1.4521320000  1.8761500000  -0.0939310000
H  -0.4180990000  0.5571860000  -1.4296160000
H  -0.9426020000  2.7443120000  -0.2033600000
H  -2.2228450000  1.8831730000  -0.7520960000