53
charge=0, multiplicity=2, basis=def2-QZVPP, mem_total=120000, AUX_BASIS_CORR=rimp2-def2-QZVPPD, SCF_ALGORITHM=GDM, xc_grid=000099000590, num_basis=2128, num_pairs=1342138, num_threads=32
Si  0.6988600000  -0.6422270000  2.0070600000
Si  -0.9951320000  2.1783110000  -0.0105940000
Si  -1.8215620000  -1.4950950000  -0.8024400000
C  -0.5765720000  -0.2857690000  3.3528650000
H  -0.2088920000  -0.6152120000  4.3295090000
H  -0.7881900000  0.7839460000  3.4221840000
H  -1.5211500000  -0.7979480000  3.1590170000
C  1.0769550000  -2.4897610000  2.0206680000
H  1.5036820000  -2.7903350000  2.9818720000
H  0.1706810000  -3.0791990000  1.8624280000
H  1.7899430000  -2.7629570000  1.2394060000
C  2.2655700000  0.3091060000  2.4460360000
H  2.5942720000  0.0461720000  3.4557950000
H  3.0851320000  0.0866220000  1.7614630000
H  2.0960100000  1.3873910000  2.4211080000
C  -2.7054740000  2.2348540000  0.7842450000
H  -2.6850480000  1.8335340000  1.7999940000
H  -3.0750090000  3.2633260000  0.8370470000
H  -3.4306980000  1.6509320000  0.2127410000
C  0.1585380000  3.2915200000  0.9823670000
H  1.1804090000  3.2527260000  0.5982660000
H  -0.1766100000  4.3318560000  0.9401670000
H  0.1881130000  2.9958420000  2.0336650000
C  -1.1310510000  2.8665330000  -1.7617210000
H  -0.1570670000  2.9037220000  -2.2548710000
H  -1.7927900000  2.2558520000  -2.3800990000
H  -1.5344150000  3.8831640000  -1.7465610000
C  -2.7679010000  -0.7372670000  -2.2476200000
H  -2.1007110000  -0.4858270000  -3.0757720000
H  -3.5169940000  -1.4383640000  -2.6268490000
H  -3.2891440000  0.1759930000  -1.9521470000
C  -1.0711730000  -3.1248580000  -1.3821070000
H  -0.4527450000  -2.9860330000  -2.2715570000
H  -1.8608190000  -3.8382490000  -1.6356030000
H  -0.4468660000  -3.5797580000  -0.6097740000
C  -3.0471670000  -1.8754830000  0.5816320000
H  -2.5586350000  -2.3866100000  1.4145570000
H  -3.8493590000  -2.5250760000  0.2183050000
H  -3.5038620000  -0.9641210000  0.9735370000
C  1.5205500000  0.2044860000  -1.9644730000
C  2.4228340000  1.1726130000  -1.6111190000
C  2.2274900000  -1.1391990000  -2.0157910000
H  0.6666670000  0.4137850000  -2.5975980000
C  3.7241780000  0.5875440000  -1.1440060000
H  2.2339150000  2.2377050000  -1.6525320000
C  3.4381590000  -0.9276100000  -1.0919720000
H  1.6082560000  -1.9819670000  -1.7107620000
H  2.5508670000  -1.3298910000  -3.0461430000
H  4.5216430000  0.8200750000  -1.8612890000
H  4.0556600000  0.9873280000  -0.1805120000
H  4.2992770000  -1.5318740000  -1.3787450000
H  3.1661260000  -1.2132660000  -0.0742970000
Si  -0.1658280000  -0.0069570000  -0.0725950000