18
charge=0, multiplicity=1, basis=def2-QZVPP, AUX_BASIS_CORR=rimp2-def2-QZVPPD, SCF_ALGORITHM=GDM, xc_grid=000099000590, mem_total=7500, num_basis=756, num_pairs=242320, num_threads=2
C  -0.9678130000  -1.1694430000  -0.0000210000
C  -0.9678130000  1.1694430000  -0.0000430000
C  -0.0771780000  0.0000000000  -0.0000080000
C  -2.2424920000  0.7312830000  -0.0000660000
C  -2.2424920000  -0.7312830000  -0.0000460000
C  1.2699500000  0.0000000000  0.0000290000
C  2.0846600000  -1.2573890000  0.0000640000
C  2.0846600000  1.2573890000  0.0000550000
H  1.4784710000  2.1593480000  -0.0001220000
H  2.7386640000  1.2805900000  -0.8771340000
H  2.7383640000  1.2807370000  0.8774660000
H  1.4784710000  -2.1593490000  0.0001000000
H  2.7385220000  -1.2806340000  0.8773580000
H  2.7385050000  -1.2806920000  -0.8772420000
H  -3.1296310000  1.3491820000  -0.0000920000
H  -0.6503180000  2.2003660000  -0.0000460000
H  -0.6503180000  -2.2003660000  -0.0000080000
H  -3.1296310000  -1.3491820000  -0.0000580000