50
charge=0, multiplicity=1, basis=def2-QZVPP, mem_total=120000, AUX_BASIS_CORR=rimp2-def2-QZVPPD, SCF_ALGORITHM=GDM, xc_grid=000099000590, num_basis=2175, num_pairs=1389767, num_threads=32
C  2.1229640000  0.5191200000  -1.9103350000
C  0.8919060000  1.1744680000  -2.1106030000
C  0.4317810000  2.1667100000  -1.3084210000
C  0.7749000000  0.2775080000  0.8203380000
C  2.0710580000  -0.2552810000  0.6128260000
C  2.9573860000  0.7393540000  -0.8219430000
C  2.3234120000  -1.7318810000  0.3425000000
C  3.8149540000  -2.0324380000  0.1784950000
C  4.3795450000  0.2144210000  -0.8175300000
C  4.4806740000  -1.2985180000  -0.9778860000
C  1.7646670000  -2.5483570000  1.5125390000
C  -0.9030970000  2.8043930000  -1.4608790000
C  0.6997460000  1.4490670000  1.6712300000
C  -1.7173810000  0.2067320000  0.6989690000
C  -1.7229280000  1.2242960000  1.5813540000
N  -0.5821830000  1.8365470000  2.0311720000
O  1.6635340000  2.0950110000  2.0727730000
C  -0.4175110000  -0.3243450000  0.2416200000
O  -0.3445180000  -1.2292710000  -0.5918070000
C  -2.9872080000  -0.3472790000  0.1842070000
C  -4.0445780000  0.5011680000  -0.1476560000
C  -3.1679580000  -1.7233160000  0.0294340000
C  -5.2577450000  -0.0060450000  -0.5915420000
C  -4.3780590000  -2.2294020000  -0.4169870000
C  -5.4294560000  -1.3755420000  -0.7264000000
H  2.7714890000  0.1623150000  1.3357630000
H  2.8423640000  1.6878990000  -0.3067950000
H  1.0962360000  2.6199620000  -0.5825440000
H  1.7870030000  -2.0256260000  -0.5578820000
H  4.3353020000  -1.7794940000  1.1114810000
H  3.9339310000  -3.1111260000  0.0436540000
H  4.9418230000  0.7216790000  -1.6073930000
H  4.8504390000  0.5040350000  0.1263900000
H  5.5345700000  -1.5823330000  -1.0375670000
H  4.0275440000  -1.6123390000  -1.9240440000
H  2.2184420000  -2.2392790000  2.4587490000
H  0.6850750000  -2.4326590000  1.5952360000
H  1.9830480000  -3.6088590000  1.3662770000
H  -1.4031370000  2.8877680000  -0.4935140000
H  -0.7893090000  3.8245650000  -1.8431090000
H  -1.5476510000  2.2443780000  -2.1385930000
H  0.2421210000  0.7926900000  -2.8905120000
H  2.3696480000  -0.2815450000  -2.5996540000
H  -2.6463340000  1.6270760000  1.9778630000
H  -0.6346130000  2.6122750000  2.6738710000
H  -3.9099350000  1.5744630000  -0.0765000000
H  -2.3492370000  -2.3924230000  0.2518690000
H  -6.0644060000  0.6719580000  -0.8442320000
H  -4.5009760000  -3.3004290000  -0.5264340000
H  -6.3727190000  -1.7756890000  -1.0782830000