36
charge=1, multiplicity=1, basis=def2-QZVPP, AUX_BASIS_CORR=rimp2-def2-QZVPPD, SCF_ALGORITHM=GDM, xc_grid=000099000590, mem_total=60000, num_basis=1485, num_pairs=778362, num_threads=16
C  1.2038220000  1.3506030000  0.0411330000
C  1.2038180000  -1.3506040000  0.0411420000
C  -0.3218700000  -1.2485350000  0.1116590000
C  -0.8480650000  0.0000030000  0.8188960000
C  -0.3218660000  1.2485410000  0.1116620000
H  -0.7356010000  -1.2682770000  -0.8969380000
H  -0.6726140000  -2.1455640000  0.6252910000
H  -0.5172480000  -0.0000050000  1.8595100000
H  -0.7356050000  1.2682880000  -0.8969330000
H  -0.6725980000  2.1455740000  0.6252960000
N  1.7704390000  -0.0000030000  -0.4009060000
O  2.7237490000  -0.0000060000  -1.0929180000
C  1.6368410000  2.3839350000  -0.9893900000
H  1.1503650000  3.3245590000  -0.7308440000
H  2.7134850000  2.5441240000  -0.9894690000
H  1.3164350000  2.1052720000  -1.9939710000
C  1.8518370000  1.6569400000  1.4033060000
H  2.9376080000  1.5648540000  1.3586200000
H  1.6138600000  2.6958310000  1.6328770000
H  1.4708630000  1.0399890000  2.2123730000
C  1.6368390000  -2.3839460000  -0.9893680000
H  2.7134820000  -2.5441380000  -0.9894400000
H  1.1503590000  -3.3245670000  -0.7308150000
H  1.3164380000  -2.1052920000  -1.9939540000
C  1.8518240000  -1.6569300000  1.4033220000
H  1.6138400000  -2.6958180000  1.6329010000
H  2.9375960000  -1.5648510000  1.3586400000
H  1.4708510000  -1.0399700000  2.2123820000
N  -2.3011200000  -0.0000100000  0.8722240000
C  -3.0929680000  0.0000130000  -0.2453620000
C  -4.5777510000  0.0000080000  -0.0062920000
H  -5.0062060000  -0.8787540000  -0.4890620000
H  -4.8521900000  0.0005560000  1.0483370000
H  -5.0063830000  0.8781270000  -0.4900590000
O  -2.6090920000  -0.0000200000  -1.3626070000
H  -2.7439930000  0.0001840000  1.7759910000