45
charge=0, multiplicity=1, basis=def2-QZVPP, mem_total=120000, AUX_BASIS_CORR=rimp2-def2-QZVPPD, SCF_ALGORITHM=GDM, xc_grid=000099000590, num_basis=1971, num_pairs=1134369, num_threads=32
C  -3.8046340000  -1.9540700000  -0.8680130000
C  -2.7342290000  -1.1026650000  -0.6440250000
C  -2.9191420000  0.1168350000  0.0145180000
C  -4.2016290000  0.4358880000  0.4641050000
C  -5.2702240000  -0.4199340000  0.2453140000
C  -5.0784560000  -1.6184590000  -0.4276820000
H  -3.6389870000  -2.8960700000  -1.3776420000
H  -1.7381770000  -1.3986890000  -0.9473510000
H  -4.3612160000  1.3710080000  0.9895500000
H  -6.2568450000  -0.1486870000  0.6020840000
H  -5.9112910000  -2.2894860000  -0.5989600000
C  -1.8086010000  1.0528850000  0.2731160000
H  -2.0833670000  1.9251570000  0.8509490000
C  -0.7974860000  1.2163470000  -0.6790600000
H  -0.7955280000  0.5780440000  -1.5514330000
C  1.1558230000  2.1980660000  -1.7301850000
C  0.4204630000  3.0288980000  0.4584050000
C  2.5363760000  1.8546050000  -1.1765830000
H  1.1673220000  3.2049560000  -2.1640870000
H  0.8619740000  1.5040890000  -2.5171320000
C  1.7808980000  2.6922500000  1.0656220000
H  0.4117720000  4.0682250000  0.1099530000
H  -0.3663980000  2.9168010000  1.1986210000
C  2.8819440000  2.7522550000  0.0093650000
H  3.2753300000  1.9639150000  -1.9744780000
H  2.5472270000  0.8079500000  -0.8655520000
H  1.9851070000  3.3891680000  1.8821430000
H  1.7365450000  1.6904490000  1.4998650000
H  3.8384350000  2.4524420000  0.4423500000
H  3.0004010000  3.7869750000  -0.3349160000
N  0.1378730000  2.1664290000  -0.6849640000
N  0.4131530000  -0.7516640000  0.3104030000
N  -0.0171090000  -0.4537360000  1.4781170000
N  -0.8801980000  0.2494610000  1.8649800000
C  1.5865760000  -1.5101770000  0.2360690000
C  2.4078340000  -1.8096470000  1.3270620000
C  1.9684510000  -1.9459040000  -1.0349800000
C  3.5777750000  -2.5285530000  1.1398840000
C  3.1426240000  -2.6591310000  -1.2115140000
C  3.9574680000  -2.9560590000  -0.1263000000
H  2.1175780000  -1.4795360000  2.3164990000
H  4.2018640000  -2.7558480000  1.9964680000
H  4.8740620000  -3.5155650000  -0.2644860000
H  3.4209720000  -2.9903460000  -2.2051900000
H  1.3262120000  -1.7189700000  -1.8777160000