16
charge=0, multiplicity=1, basis=def2-QZVPP, AUX_BASIS_CORR=rimp2-def2-QZVPPD, SCF_ALGORITHM=GDM, xc_grid=000099000590, mem_total=7500, num_basis=696, num_pairs=210972, num_threads=2
C  2.2893330000  -0.2510860000  -0.1150240000
C  1.8018930000  1.0469950000  -0.1386100000
C  0.4393090000  1.2798920000  0.0010850000
C  -0.4467350000  0.2226750000  0.1740300000
C  0.0510160000  -1.0787430000  0.1961250000
C  1.4091960000  -1.3142150000  0.0501510000
H  3.3506950000  -0.4361240000  -0.2282690000
H  2.4808600000  1.8804810000  -0.2732500000
H  0.0607610000  2.2961510000  -0.0271740000
H  -0.6382080000  -1.9053420000  0.3222310000
H  1.7849110000  -2.3303600000  0.0682670000
C  -1.9228750000  0.4753940000  0.3539680000
O  -2.7391350000  -0.4100110000  -0.3967870000
H  -2.1499840000  1.5197790000  0.1108720000
H  -2.2111340000  0.3134190000  1.3947240000
H  -2.4916360000  -0.3433760000  -1.3234580000