19
charge=0, multiplicity=1, basis=def2-QZVPP, AUX_BASIS_CORR=rimp2-def2-QZVPPD, SCF_ALGORITHM=GDM, xc_grid=000099000590, mem_total=15000, num_basis=921, num_pairs=340697, num_threads=4
C  2.4544240000  0.7629070000  -0.0000070000
C  1.6285660000  1.8068500000  0.0000220000
C  0.1612500000  1.6390670000  0.0000320000
O  -0.5628150000  2.6323300000  0.0000580000
C  -0.3810340000  0.2813080000  0.0000090000
C  0.4796890000  -0.8341750000  -0.0000210000
C  1.9561770000  -0.6335210000  -0.0000280000
O  2.7356820000  -1.5613160000  -0.0000500000
C  -0.0280070000  -2.1152460000  -0.0000430000
C  -1.4121850000  -2.3022990000  -0.0000360000
C  -2.2735880000  -1.2282340000  -0.0000070000
C  -1.7705060000  0.0781700000  0.0000160000
O  -2.6429220000  1.0863110000  0.0000430000
H  0.6567000000  -2.9524560000  -0.0000660000
H  -1.8160390000  -3.3074410000  -0.0000530000
H  -3.3478240000  -1.3604470000  -0.0000010000
H  -2.1337720000  1.9269660000  0.0000550000
H  1.9804800000  2.8315720000  0.0000380000
H  3.5321840000  0.8742430000  -0.0000150000