14
charge=0, multiplicity=1, basis=def2-QZVPP, AUX_BASIS_CORR=rimp2-def2-QZVPPD, SCF_ALGORITHM=GDM, xc_grid=000099000590, mem_total=3750, num_basis=582, num_pairs=149070, num_threads=1
O  -2.4174530000  -0.7780020000  0.0535600000
C  -2.0280480000  0.3341110000  -0.1825190000
C  -0.5929030000  0.7715210000  -0.1134400000
C  0.3820020000  -0.3384390000  0.2652350000
C  1.7875740000  0.1649530000  0.3848610000
C  2.8070280000  -0.2460250000  -0.3549550000
H  -2.7476070000  1.1264570000  -0.4761360000
H  0.0607540000  -0.7766310000  1.2148870000
H  0.3301110000  -1.1401550000  -0.4743580000
H  -0.5457060000  1.6071320000  0.5969900000
H  -0.3357440000  1.2114750000  -1.0847310000
H  1.9590800000  0.9299970000  1.1402540000
H  2.6809570000  -1.0076740000  -1.1176980000
H  3.8038710000  0.1566840000  -0.2227740000