40
charge=0, multiplicity=1, basis=def2-QZVPP, AUX_BASIS_CORR=rimp2-def2-QZVPPD, SCF_ALGORITHM=GDM, xc_grid=000099000590, mem_total=60000, num_basis=1713, num_pairs=927198, num_threads=16
C  1.0134700000  1.6777700000  0.1625810000
H  1.2488960000  2.6051770000  -0.3720340000
H  1.1075230000  1.9130470000  1.2430650000
C  2.0238860000  0.6351930000  -0.1968580000
C  0.2278030000  -1.0403550000  -0.4970590000
H  -0.1703700000  -1.1185480000  -1.5145090000
H  0.1629000000  -2.0380480000  -0.0553150000
C  -0.6345690000  -0.0604530000  0.3000670000
H  -0.3410850000  -0.1433230000  1.3654000000
N  -0.3401720000  1.2867170000  -0.1770580000
C  2.6929520000  -1.5704730000  -0.9369990000
C  3.4676040000  1.0527330000  -0.2579160000
C  3.9868200000  -1.3439830000  -0.7125510000
C  4.4360450000  -0.1025530000  0.0179740000
C  1.6651840000  -0.6065020000  -0.5286380000
C  4.5578630000  -0.3993200000  1.5183420000
H  4.9353940000  0.4735430000  2.0576990000
H  3.5846950000  -0.6675670000  1.9355020000
H  5.2415640000  -1.2314660000  1.6991370000
C  -2.1103720000  -0.4003370000  0.2114350000
C  -1.3134340000  2.2728740000  0.2477910000
H  -0.9548070000  3.2599270000  -0.0524540000
H  -1.4228340000  2.2862080000  1.3481020000
C  -2.6486260000  1.9757390000  -0.4058610000
H  -2.5567980000  2.1385460000  -1.4840230000
C  -3.0651910000  0.5546310000  -0.1360410000
H  -3.4143190000  2.6625470000  -0.0360480000
C  -4.4077720000  0.1868140000  -0.2052780000
H  -5.1438490000  0.9371480000  -0.4743900000
C  -2.5305920000  -1.6965100000  0.5108880000
H  -1.8011810000  -2.4402380000  0.8090070000
C  -4.8130620000  -1.1065630000  0.0724230000
H  -5.8613950000  -1.3735380000  0.0146510000
C  -3.8659040000  -2.0536120000  0.4410580000
H  -4.1680290000  -3.0668940000  0.6768120000
H  3.6565330000  1.8676470000  0.4489890000
H  3.6593250000  1.4649240000  -1.2582140000
H  5.4247480000  0.1875370000  -0.3486850000
H  2.3681040000  -2.4922360000  -1.4095720000
H  4.7335600000  -2.0819700000  -0.9858620000