19
charge=0, multiplicity=2, basis=def2-QZVPP, AUX_BASIS_CORR=rimp2-def2-QZVPPD, SCF_ALGORITHM=GDM, xc_grid=000099000590, mem_total=7500, num_basis=759, num_pairs=246615, num_threads=2
C  -1.5469830000  -0.1218950000  -0.1510800000
C  -0.5943080000  -0.9415940000  0.7040890000
C  0.7924430000  -0.3090440000  0.8418230000
H  -0.5126750000  -1.9383840000  0.2670070000
H  -1.0515180000  -1.0528960000  1.6923750000
C  1.5218380000  -0.1435340000  -0.4873180000
H  1.3897660000  -0.9409280000  1.5065980000
H  0.7138500000  0.6619780000  1.3420120000
C  2.9135550000  0.4548180000  -0.3218630000
N  -2.0533560000  -0.6042010000  -1.1818690000
C  -1.8677260000  1.2904980000  0.2859190000
H  -2.2242560000  1.2884910000  1.3184980000
H  -2.6290250000  1.7270750000  -0.3575910000
H  -0.9696680000  1.9098240000  0.2421010000
H  2.8648930000  1.4442110000  0.1411440000
H  3.4174940000  0.5636440000  -1.2841140000
H  3.5416080000  -0.1757060000  0.3131180000
H  0.9276270000  0.4854120000  -1.1575840000
H  1.5924800000  -1.1188110000  -0.9799050000