31
charge=0, multiplicity=1, basis=def2-QZVPP, AUX_BASIS_CORR=rimp2-def2-QZVPPD, SCF_ALGORITHM=GDM, xc_grid=000099000590, mem_total=30000, num_basis=1281, num_pairs=618738, num_threads=8
C  0.7728350000  0.3551190000  -0.4494290000
C  -0.7041630000  0.1043990000  -0.2148550000
C  -1.4767050000  -0.5245530000  -1.1854340000
C  -1.3149500000  0.5023330000  0.9713020000
C  -2.8246030000  -0.7772150000  -0.9698700000
H  -1.0187590000  -0.8194610000  -2.1233390000
C  -2.6628030000  0.2568020000  1.1888310000
H  -0.7265620000  1.0205350000  1.7178450000
C  -3.4212660000  -0.3893140000  0.2213010000
H  -3.4106780000  -1.2697600000  -1.7366410000
H  -3.1243160000  0.5735930000  2.1166870000
H  -4.4740060000  -0.5803090000  0.3912770000
O  1.1744660000  1.5989040000  0.0973320000
C  0.6897960000  2.7169150000  -0.6099600000
H  -0.4046260000  2.7612770000  -0.6008700000
H  1.0872430000  3.6039350000  -0.1184860000
H  1.0332210000  2.7004410000  -1.6521880000
C  1.7190920000  -0.7310040000  0.1207270000
C  3.1487240000  -0.3801140000  -0.3057280000
H  3.4502040000  0.5865860000  0.0966340000
H  3.8474500000  -1.1392740000  0.0540490000
H  3.2333160000  -0.3382120000  -1.3956550000
C  1.6433740000  -0.7861870000  1.6481880000
H  0.6555740000  -1.0997540000  1.9900130000
H  2.3707820000  -1.5078340000  2.0280890000
H  1.8688590000  0.1874930000  2.0850940000
C  1.3462640000  -2.0970430000  -0.4604480000
H  0.3505460000  -2.4139810000  -0.1472270000
H  1.3718410000  -2.0872940000  -1.5539950000
H  2.0613690000  -2.8496470000  -0.1204830000
H  0.9392420000  0.3796030000  -1.5372090000