24
charge=0, multiplicity=1, basis=def2-QZVPP, mem_total=15000, AUX_BASIS_CORR=rimp2-def2-QZVPPD, SCF_ALGORITHM=GDM, xc_grid=000099000590, num_basis=1071, num_pairs=433776, num_threads=4
H  4.5300020000  0.1234660000  0.9455600000
N  -1.8650280000  1.7699130000  0.8239170000
C  -2.1710540000  0.7715750000  -0.1760590000
C  -2.3733720000  -0.6202160000  0.4107270000
O  -2.2760650000  -0.9082150000  1.5711000000
O  -2.7111740000  -1.5260380000  -0.5311730000
C  -1.1042040000  0.7606600000  -1.2887420000
H  -1.4148140000  0.0602340000  -2.0645350000
H  -1.0987020000  1.7604140000  -1.7248210000
C  0.2751190000  0.4072450000  -0.7948450000
C  0.7117850000  -0.9173150000  -0.7666670000
H  0.0592650000  -1.6993500000  -1.1383790000
C  1.9634170000  -1.2566060000  -0.2838630000
H  2.3007660000  -2.2849820000  -0.2662260000
C  2.8120880000  -0.2620470000  0.1844500000
C  2.4023160000  1.0640730000  0.1595210000
H  3.0659200000  1.8457680000  0.5152610000
C  1.1439560000  1.3886380000  -0.3282360000
H  0.8336910000  2.4270470000  -0.3480190000
O  4.0355300000  -0.6452210000  0.6487700000
H  -3.1228480000  1.0350180000  -0.6485690000
H  -2.8458070000  -2.3718990000  -0.0810140000
H  -1.0067490000  1.5279830000  1.3078600000
H  -2.5921580000  1.8066510000  1.5281710000