15
charge=0, multiplicity=2, basis=def2-QZVPP, AUX_BASIS_CORR=rimp2-def2-QZVPPD, SCF_ALGORITHM=GDM, xc_grid=000099000590, mem_total=3750, num_basis=612, num_pairs=176177, num_threads=1
O  1.9581740000  -0.0000020000  -0.1942470000
O  0.8302730000  -0.0000330000  -0.8429260000
C  -0.3609090000  0.0000020000  0.0455170000
C  -0.3167950000  -1.2625010000  0.8871850000
C  -0.3168000000  1.2625640000  0.8870960000
C  -1.5112480000  -0.0000350000  -0.9425920000
H  -0.3089150000  -2.1497820000  0.2518530000
H  0.5742850000  -1.2713760000  1.5142960000
H  -1.1970860000  -1.3057800000  1.5310400000
H  -0.3089180000  2.1498000000  0.2517030000
H  -1.1970970000  1.3058860000  1.5309410000
H  0.5742740000  1.2714850000  1.5142140000
H  -1.4747580000  0.8859630000  -1.5781190000
H  -1.4747470000  -0.8860710000  -1.5780660000
H  -2.4601000000  -0.0000240000  -0.4037210000