22
charge=0, multiplicity=2, basis=def2-QZVPP, AUX_BASIS_CORR=rimp2-def2-QZVPPD, SCF_ALGORITHM=GDM, xc_grid=000099000590, mem_total=15000, num_basis=903, num_pairs=332683, num_threads=4
C  1.2107960000  -0.2521650000  0.3625720000
C  0.0182650000  -0.8657950000  1.0320840000
C  1.3615920000  1.1301920000  0.3133070000
C  2.3701520000  1.8174520000  -0.3197180000
H  -0.5114230000  -0.1102480000  1.6167520000
H  0.3510730000  -1.6397260000  1.7336900000
C  -0.9655230000  -1.5109550000  0.0440710000
H  -0.4582410000  -2.2929750000  -0.5279250000
C  -1.5745060000  -0.5091840000  -0.9462890000
H  -1.7682530000  -1.9971750000  0.6039630000
H  -2.2133460000  -1.0390410000  -1.6578300000
H  -0.7786700000  -0.0362250000  -1.5292300000
C  -2.3592200000  0.5346230000  -0.2946670000
C  -2.9992310000  1.3824690000  0.2575800000
H  -3.5702770000  2.1378020000  0.7397090000
C  2.1822760000  -1.1744930000  -0.3089950000
H  2.0856950000  -2.1935490000  0.0704430000
H  3.2153620000  -0.8551520000  -0.1548750000
H  2.0207560000  -1.2137970000  -1.3932270000
H  0.5967740000  1.7165350000  0.8162970000
H  3.1650080000  1.3120010000  -0.8532260000
H  2.3979280000  2.8986890000  -0.3042120000