13
charge=0, multiplicity=2, basis=def2-QZVPP, AUX_BASIS_CORR=rimp2-def2-QZVPPD, SCF_ALGORITHM=GDM, xc_grid=000099000590, mem_total=3750, num_basis=498, num_pairs=118713, num_threads=1
C  0.0000000000  -0.0000020000  -0.1611310000
C  -1.2544720000  -0.7850520000  0.0160320000
C  -0.0526420000  1.4789230000  0.0160300000
C  1.3071140000  -0.6938740000  0.0160320000
H  -2.1151120000  -0.2786050000  -0.4286420000
H  -1.4920970000  -0.9334480000  1.0829240000
H  -1.1750400000  -1.7806720000  -0.4282080000
H  -0.9544590000  1.9079810000  -0.4284420000
H  0.8164090000  1.9710060000  -0.4284060000
H  -0.0626280000  1.7589100000  1.0829210000
H  1.2986590000  -1.6926290000  -0.4281900000
H  1.5546990000  -0.8249830000  1.0829240000
H  2.1295670000  -0.1275310000  -0.4286610000