6
charge=0, multiplicity=1, basis=def2-QZVPP, mem_total=3750, AUX_BASIS_CORR=rimp2-def2-QZVPPD, SCF_ALGORITHM=GDM, xc_grid=000099000590, num_basis=234, num_pairs=27841, num_threads=1
C  0.0000020000  -0.6616520000  0.0000000000
H  -0.0000050000  -1.2309420000  0.9226580000
H  -0.0000050000  -1.2309420000  -0.9226580000
C  0.0000020000  0.6616530000  0.0000000000
H  -0.0000060000  1.2309410000  -0.9226590000
H  -0.0000060000  1.2309410000  0.9226590000