9
charge=0, multiplicity=1, basis=def2-QZVPP, AUX_BASIS_CORR=rimp2-def2-QZVPPD, SCF_ALGORITHM=GDM, xc_grid=000099000590, mem_total=3750, num_basis=351, num_pairs=61036, num_threads=1
C  -1.2179470000  -0.2222750000  -0.0000490000
C  0.0821440000  0.5478750000  -0.0000860000
H  -1.2828130000  -0.8584150000  -0.8843630000
H  -2.0693440000  0.4618360000  -0.0003060000
H  -1.2830200000  -0.8580120000  0.8845390000
H  0.1404870000  1.1913500000  0.8864410000
H  0.1406060000  1.1910570000  -0.8868180000
H  1.9858500000  0.0735020000  0.0001710000
O  1.1478820000  -0.3943650000  0.0001430000