18
charge=0, multiplicity=2, basis=def2-QZVPP, AUX_BASIS_CORR=rimp2-def2-QZVPPD, SCF_ALGORITHM=GDM, xc_grid=000099000590, mem_total=7500, num_basis=810, num_pairs=268075, num_threads=2
C  -0.0000040000  0.9994380000  1.2287000000
C  -0.0000040000  -0.3714170000  1.2563210000
C  -0.0000050000  -1.1154640000  0.0000000000
C  -0.0000040000  -0.3714170000  -1.2563210000
C  -0.0000040000  0.9994380000  -1.2287000000
C  -0.0000030000  1.6558180000  0.0000000000
H  -0.0000050000  1.5881850000  2.1376960000
H  -0.0000050000  1.5881850000  -2.1376960000
F  -0.0000050000  2.9960060000  0.0000000000
O  0.0000000000  -2.3573850000  0.0000000000
C  0.0000080000  -1.1531230000  -2.5271420000
H  -0.0001090000  -0.4958340000  -3.3963510000
H  0.8730660000  -1.8075490000  -2.5722670000
H  -0.8729070000  -1.8077450000  -2.5721650000
C  0.0000080000  -1.1531230000  2.5271420000
H  0.8730660000  -1.8075490000  2.5722670000
H  -0.0001090000  -0.4958340000  3.3963510000
H  -0.8729070000  -1.8077450000  2.5721650000