15
charge=0, multiplicity=1, basis=def2-QZVPP, AUX_BASIS_CORR=rimp2-def2-QZVPPD, SCF_ALGORITHM=GDM, xc_grid=000099000590, mem_total=7500, num_basis=679, num_pairs=201941, num_threads=2
C  1.4566540000  0.0000230000  0.8752190000
C  0.0252960000  0.0000100000  0.4473890000
C  -0.6492120000  1.2000840000  0.2443150000
C  -0.6491980000  -1.2000750000  0.2443320000
H  -0.1280630000  2.1386540000  0.3966290000
C  -1.9770590000  1.2014820000  -0.1554340000
C  -1.9770440000  -1.2014940000  -0.1554170000
C  -2.6432660000  -0.0000120000  -0.3561730000
H  -0.1280370000  -2.1386360000  0.3966600000
H  -2.4933620000  2.1412100000  -0.3092860000
H  -2.4933360000  -2.1412310000  -0.3092550000
H  -3.6808580000  -0.0000200000  -0.6673080000
H  1.7069940000  -0.8872320000  1.4505790000
H  1.7069910000  0.8873050000  1.4505370000
Cl  2.5878020000  -0.0000090000  -0.5455260000