27
charge=1, multiplicity=1, basis=def2-QZVPP, AUX_BASIS_CORR=rimp2-def2-QZVPPD, SCF_ALGORITHM=GDM, xc_grid=000099000590, mem_total=30000, num_basis=1134, num_pairs=435647, num_threads=8
C  0.0190100000  -0.5079310000  -0.7558080000
C  1.3142250000  -0.1812390000  -0.3096600000
C  2.1152690000  0.6176720000  -1.1486230000
C  1.8055250000  -0.6317980000  0.9333180000
C  3.3899070000  0.9597000000  -0.7501240000
H  1.7286260000  0.9592130000  -2.1019990000
C  3.0783800000  -0.2835740000  1.3175990000
H  1.1793660000  -1.2454090000  1.5678990000
C  3.8654110000  0.5091690000  0.4778740000
H  4.0157570000  1.5723220000  -1.3850940000
H  3.4727380000  -0.6208190000  2.2670160000
O  -0.7672080000  -1.2293420000  -0.0756080000
C  -2.1458240000  -1.4896810000  -0.5393010000
H  -2.2914740000  -2.5471820000  -0.3338940000
H  -2.1645280000  -1.3121400000  -1.6166530000
H  4.8674330000  0.7782670000  0.7901640000
C  -3.1048110000  -0.6048930000  0.2190600000
H  -3.0125890000  -0.8082350000  1.2895370000
H  -4.1097870000  -0.9296760000  -0.0695350000
C  -2.9406290000  0.8856280000  -0.0645300000
H  -1.9414650000  1.2177210000  0.2403850000
H  -3.0183260000  1.0611840000  -1.1435520000
C  -3.9810580000  1.7287960000  0.6644790000
H  -3.9109560000  1.5925350000  1.7457960000
H  -3.8446810000  2.7895910000  0.4528560000
H  -4.9926460000  1.4552400000  0.3577480000
H  -0.3322240000  -0.1389750000  -1.7215060000