14
charge=-1, multiplicity=1, basis=def2-QZVPP, mem_total=7500, AUX_BASIS_CORR=rimp2-def2-QZVPPD, SCF_ALGORITHM=GDM, xc_grid=000099000590, num_basis=663, num_pairs=186555, num_threads=2
C  1.7990570000  -1.2699500000  -0.0000090000
N  2.7243200000  -0.2980560000  -0.0000130000
C  2.2358340000  0.9450000000  -0.0000100000
C  0.8921490000  1.2629460000  -0.0000040000
C  -0.0842330000  0.2450360000  0.0000010000
C  0.4370180000  -1.0686330000  -0.0000030000
C  -1.4792420000  0.5521410000  0.0000070000
N  -2.3853300000  -0.4061190000  0.0000100000
O  -3.6083470000  -0.0649110000  0.0000190000
H  2.9748900000  1.7440910000  -0.0000130000
H  0.5858420000  2.3036170000  -0.0000020000
H  -0.2483080000  -1.9054810000  -0.0000010000
H  2.1877180000  -2.2861930000  -0.0000120000
H  -1.8097910000  1.5932320000  0.0000080000