7
charge=0, multiplicity=1, basis=def2-QZVPP, AUX_BASIS_CORR=rimp2-def2-QZVPPD, SCF_ALGORITHM=GDM, xc_grid=000099000590, mem_total=3750, num_basis=291, num_pairs=41445, num_threads=1
C  0.2193630000  0.0000020000  0.0000010000
C  -1.2364110000  0.0000000000  0.0000000000
H  -1.6238610000  0.1726270000  1.0057860000
H  -1.6238580000  -0.9573520000  -0.3533930000
H  -1.6238610000  0.7847210000  -0.6523940000
C  1.4159080000  -0.0000010000  0.0000000000
H  2.4784210000  0.0000000000  -0.0000020000