24
charge=0, multiplicity=1, basis=def2-QZVPP, mem_total=30000, AUX_BASIS_CORR=rimp2-def2-QZVPPD, SCF_ALGORITHM=GDM, xc_grid=000099000590, num_basis=1098, num_pairs=478159, num_threads=8
C  0.0000000000  1.2386050000  -0.8639950000
C  0.0000000000  -1.2386050000  -0.8639950000
N  1.1896600000  0.6102450000  -1.5462190000
N  1.1896600000  -0.6102450000  -1.5462190000
C  0.0000000000  -2.7266120000  -1.0608070000
H  -0.8901850000  -3.1682640000  -0.6123860000
H  0.0000000000  -2.9529810000  -2.1266460000
H  0.8901850000  -3.1682640000  -0.6123860000
C  0.0000000000  2.7266120000  -1.0608070000
H  0.0000000000  2.9529810000  -2.1266460000
H  -0.8901850000  3.1682640000  -0.6123860000
H  0.8901850000  3.1682640000  -0.6123860000
C  0.0000000000  0.6957110000  2.9135400000
C  0.0000000000  1.4036420000  1.7185130000
C  0.0000000000  0.6932940000  0.5300160000
C  0.0000000000  -0.6932940000  0.5300160000
C  0.0000000000  -1.4036420000  1.7185130000
C  0.0000000000  -0.6957110000  2.9135400000
H  0.0000000000  1.2325400000  3.8540690000
H  0.0000000000  2.4861460000  1.7208110000
H  0.0000000000  -2.4861460000  1.7208110000
H  0.0000000000  -1.2325400000  3.8540690000
N  -1.1896600000  0.6102450000  -1.5462190000
N  -1.1896600000  -0.6102450000  -1.5462190000