43
charge=0, multiplicity=1, basis=def2-QZVPP, mem_total=120000, AUX_BASIS_CORR=rimp2-def2-QZVPPD, SCF_ALGORITHM=GDM, xc_grid=000099000590, num_basis=1965, num_pairs=1095947, num_threads=32
C  4.7632770000  -1.9834140000  -0.8927250000
C  3.5718920000  -2.4421720000  -1.4378760000
C  2.3606510000  -1.9374440000  -0.9949610000
C  2.3181070000  -0.9630320000  0.0078290000
C  3.5218870000  -0.5047070000  0.5524430000
C  4.7291550000  -1.0143190000  0.1001780000
H  5.7106140000  -2.3777110000  -1.2398170000
H  3.5838420000  -3.1968180000  -2.2151560000
H  1.4390610000  -2.3009320000  -1.4318210000
H  3.5060490000  0.2433560000  1.3304500000
H  5.6529880000  -0.6487990000  0.5324480000
C  1.0110700000  -0.4388160000  0.4335890000
C  0.8094510000  0.4620500000  1.5794380000
O  1.6249400000  0.9136270000  2.3235630000
O  -0.5568050000  0.6890310000  1.8250290000
N  -0.1030090000  -0.9686890000  0.0212050000
N  -0.7658230000  -1.8490790000  -0.4491950000
C  -1.2595910000  0.9641150000  0.6891180000
C  -2.4822630000  0.3978290000  0.3306960000
H  -3.1002470000  1.0629970000  -0.2636360000
C  -0.8256770000  2.1953130000  -0.0033880000
C  -1.0618040000  2.3573900000  -1.3705780000
C  -0.1680090000  3.2098950000  0.6973730000
C  -0.6630620000  3.5134500000  -2.0198520000
H  -1.5309030000  1.5573160000  -1.9296930000
C  0.2266360000  4.3657900000  0.0434650000
H  0.0231830000  3.0906930000  1.7554240000
C  -0.0192330000  4.5218150000  -1.3139290000
H  -0.8414780000  3.6226450000  -3.0825940000
H  0.7284540000  5.1490700000  0.5981180000
H  0.2961550000  5.4244920000  -1.8229230000
C  -2.8836710000  -0.9200010000  0.3344320000
C  -4.1432340000  -1.3760290000  -0.3636610000
C  -2.0830590000  -2.0624250000  0.6514310000
C  -3.8034390000  -2.7970960000  -0.8340560000
H  -4.4485500000  -0.7047090000  -1.1685370000
C  -2.8337120000  -3.3063030000  0.2381990000
H  -1.5278690000  -2.0982460000  1.5811510000
H  -4.6834520000  -3.4293660000  -0.9520380000
H  -3.2897580000  -2.7511690000  -1.7966080000
H  -2.1548540000  -4.0831470000  -0.1169040000
H  -3.3758980000  -3.7042910000  1.1019120000
H  -4.9628380000  -1.4035790000  0.3644230000