41
charge=1, multiplicity=1, basis=def2-QZVPP, AUX_BASIS_CORR=rimp2-def2-QZVPPD, SCF_ALGORITHM=GDM, xc_grid=000099000590, mem_total=60000, num_basis=1716, num_pairs=982483, num_threads=16
C  -1.6365490000  -2.6630140000  -0.4979890000
C  -0.9698040000  -1.6444140000  0.4418370000
C  -2.9821650000  -0.7694860000  0.1408520000
C  -3.0460060000  -2.0420600000  -0.7207480000
H  -1.0694810000  -2.7874370000  -1.4189260000
H  -1.6954960000  -3.6339900000  -0.0058780000
H  -3.2509200000  -1.8129850000  -1.7673410000
H  -3.8426980000  -2.6978550000  -0.3694370000
C  -2.1359130000  -1.2150230000  1.3355310000
H  -1.8943920000  -0.4128020000  2.0314500000
H  -2.5776960000  -2.0512460000  1.8738040000
H  -0.0424940000  -1.9591400000  0.9020840000
H  -3.9260450000  -0.2691000000  0.3411670000
N  -2.0294190000  0.1833040000  -0.4856200000
N  -0.7850790000  -0.4176740000  -0.3687230000
C  0.2779950000  0.3950580000  -0.5128930000
C  1.6479550000  -0.0918030000  -0.2466930000
C  2.0526680000  -0.5319760000  1.0143170000
C  2.5729020000  -0.0654590000  -1.2889050000
C  3.3525070000  -0.9628530000  1.2184770000
H  1.3632180000  -0.5123030000  1.8495850000
C  3.8718370000  -0.5057860000  -1.0849260000
H  2.2738380000  0.2957210000  -2.2661120000
C  4.2617870000  -0.9567200000  0.1675530000
H  3.6615240000  -1.2953410000  2.2013350000
H  4.5805830000  -0.4897220000  -1.9029850000
H  5.2780660000  -1.2928730000  0.3302180000
H  0.1958610000  1.0455500000  -1.3795900000
H  -2.2496320000  0.4241700000  -1.4499770000
C  -1.4407600000  2.1947080000  0.5691930000
H  -2.0985980000  1.8220410000  1.3430480000
C  -0.0746820000  2.0053430000  0.7174790000
H  0.2299900000  1.5438290000  1.6518590000
C  0.9232890000  2.9854470000  0.1410550000
H  0.9088870000  3.9181860000  0.7088600000
H  1.9359040000  2.5857520000  0.1893030000
H  0.7091080000  3.2372370000  -0.8994780000
C  -2.0425560000  3.1526350000  -0.4012940000
H  -3.1061080000  2.9675010000  -0.5484140000
H  -1.9369060000  4.1744140000  -0.0200840000
H  -1.5400570000  3.1333970000  -1.3711720000