41
charge=0, multiplicity=2, basis=def2-QZVPP, AUX_BASIS_CORR=rimp2-def2-QZVPPD, SCF_ALGORITHM=GDM, xc_grid=000099000590, mem_total=60000, num_basis=1716, num_pairs=987821, num_threads=16
C  2.3526360000  2.7559690000  0.0123660000
C  2.6168890000  2.0051520000  1.1481970000
C  2.4481880000  0.6259150000  1.1320030000
C  2.0057250000  -0.0248860000  -0.0158550000
C  1.7594660000  0.7378370000  -1.1562700000
C  1.9281960000  2.1140890000  -1.1442980000
H  2.4791810000  3.8318340000  0.0265470000
H  2.9512640000  2.4935080000  2.0560120000
H  2.6482730000  0.0632080000  2.0344150000
H  1.4119150000  0.2350380000  -2.0495870000
H  1.7249830000  2.6890450000  -2.0404080000
C  1.7920570000  -1.5388000000  -0.0763340000
O  0.7931920000  -1.8569980000  -1.0122240000
H  -1.4117580000  1.2953680000  1.8971060000
C  -1.3244210000  0.8772820000  0.8925420000
N  -1.7561200000  -0.5226150000  0.9377530000
H  -0.2744080000  0.9056400000  0.6133760000
C  -2.2005340000  1.6560000000  -0.1323250000
C  -3.1906140000  -0.5642280000  1.2467390000
C  -1.5666770000  -1.1714700000  -0.3254630000
H  -2.8692580000  2.3628240000  0.3638910000
H  -1.5766900000  2.2188110000  -0.8291710000
N  -3.0160460000  0.7032550000  -0.8840650000
H  -3.4939490000  -1.5992990000  1.4166160000
H  -3.3597580000  -0.0088390000  2.1719200000
C  -3.9583040000  0.0621020000  0.0368970000
H  -0.3916290000  -1.4258980000  -0.5810080000
H  -2.0180730000  -2.1651310000  -0.2853050000
C  -2.1255510000  -0.3023890000  -1.4717450000
H  -4.5061210000  -0.7036050000  -0.5168140000
H  -4.6811620000  0.8096620000  0.3701030000
H  -1.3381350000  0.2156840000  -2.0219010000
H  -2.6790450000  -0.9193810000  -2.1829870000
C  3.0634360000  -2.1982290000  -0.6373930000
H  2.9223750000  -3.2781470000  -0.6992460000
H  3.2798950000  -1.8124300000  -1.6338990000
H  3.9133160000  -1.9816850000  0.0132160000
C  1.4443740000  -2.1492650000  1.2837760000
H  1.2348560000  -3.2099810000  1.1399220000
H  2.2672250000  -2.0592500000  1.9947500000
H  0.5571230000  -1.6759490000  1.7074180000