21
charge=0, multiplicity=1, basis=def2-QZVPP, mem_total=7500, AUX_BASIS_CORR=rimp2-def2-QZVPPD, SCF_ALGORITHM=GDM, xc_grid=000099000590, num_basis=819, num_pairs=282049, num_threads=2
C  0.5635540000  -0.4471100000  0.0000150000
C  1.6405420000  0.3264790000  -0.0000980000
C  3.0502520000  -0.1793350000  -0.0001150000
H  3.5968300000  0.1767230000  0.8780920000
H  3.0817640000  -1.2704220000  0.0000040000
H  3.5967400000  0.1765290000  -0.8784570000
C  -1.0492300000  1.5010360000  -0.0001050000
C  -0.8853440000  -0.0185110000  0.0000390000
H  -0.5941700000  1.9518020000  0.8847540000
H  -0.5942460000  1.9516250000  -0.8850920000
H  -2.1099310000  1.7631140000  -0.0000850000
C  -1.5608750000  -0.6019880000  -1.2504620000
C  -1.5607590000  -0.6017390000  1.2507190000
H  -1.4610700000  -1.6900740000  -1.2792500000
H  -2.6276020000  -0.3621930000  -1.2602140000
H  -1.1106040000  -0.1987220000  -2.1602020000
H  -2.6274860000  -0.3619430000  1.2605210000
H  -1.4609510000  -1.6898190000  1.2797150000
H  -1.1104040000  -0.1982910000  2.1603370000
H  0.7084240000  -1.5280810000  0.0001060000
H  1.5238690000  1.4067700000  -0.0001900000