33
charge=0, multiplicity=2, basis=def2-QZVPP, AUX_BASIS_CORR=rimp2-def2-QZVPPD, SCF_ALGORITHM=GDM, xc_grid=000099000590, mem_total=30000, num_basis=1341, num_pairs=634954, num_threads=8
C  0.2018070000  1.2090860000  0.2645260000
C  1.2569290000  0.8330470000  1.2958580000
C  1.9809520000  -0.4752770000  0.9685470000
H  0.7664960000  0.7477260000  2.2691580000
H  1.9629240000  1.6597860000  1.3712250000
C  2.6566940000  -0.5161020000  -0.4057530000
H  1.2792240000  -1.3120680000  1.0450680000
H  2.7389050000  -0.6467100000  1.7408390000
C  3.2620620000  -1.8962400000  -0.6500180000
C  3.7114940000  0.5774890000  -0.5598470000
N  0.2723730000  2.3059310000  -0.3203550000
C  -0.9171060000  0.2182520000  -0.0322700000
H  -0.4302090000  -0.7044050000  -0.3736580000
C  -1.8634920000  0.6957690000  -1.1324370000
C  -1.7253940000  -0.1186480000  1.2271840000
H  4.4781080000  0.4879240000  0.2166320000
H  3.2771710000  1.5762180000  -0.4966440000
H  4.2100640000  0.4988340000  -1.5284040000
H  4.0466740000  -2.1106610000  0.0821150000
H  3.7101420000  -1.9604290000  -1.6440060000
H  2.5082300000  -2.6837230000  -0.5700540000
H  -1.0949970000  -0.5789550000  1.9922450000
C  -2.8611070000  -1.0721450000  0.8797920000
H  -2.1426240000  0.8009510000  1.6483410000
H  -1.3201720000  0.8430850000  -2.0687210000
H  -2.2918950000  1.6615160000  -0.8533260000
C  -2.9836490000  -0.3123710000  -1.3348410000
H  -2.5767530000  -1.2627860000  -1.7139930000
H  -3.7157330000  0.0518890000  -2.0551550000
O  -3.6956280000  -0.5539230000  -0.1345700000
H  -3.5011940000  -1.2488090000  1.7442430000
H  -2.4485570000  -2.0410760000  0.5573300000
H  1.8874690000  -0.3456020000  -1.1686370000