37
charge=0, multiplicity=1, basis=def2-QZVPP, AUX_BASIS_CORR=rimp2-def2-QZVPPD, SCF_ALGORITHM=GDM, xc_grid=000099000590, mem_total=60000, num_basis=1515, num_pairs=801326, num_threads=16
C  -1.4403340000  -1.2349580000  0.0541800000
C  -1.0711260000  1.2977250000  -0.1458230000
C  0.3661440000  1.0089820000  -0.5898690000
C  0.9202790000  -0.2863840000  -0.0099860000
C  0.0114870000  -1.4413550000  -0.3932570000
H  0.3923150000  0.9371470000  -1.6823820000
H  1.0029100000  1.8454620000  -0.2952090000
H  0.9911680000  -0.1994550000  1.0740130000
H  0.0244560000  -1.5531980000  -1.4839630000
H  0.3811980000  -2.3749130000  0.0384470000
N  -1.8729870000  0.0883700000  -0.4514540000
O  -3.2091230000  0.3147010000  -0.0008550000
C  -2.3106840000  -2.2824110000  -0.6452980000
H  -1.9330800000  -3.2854870000  -0.4351260000
H  -3.3410710000  -2.2296360000  -0.2932750000
H  -2.2987880000  -2.1235480000  -1.7253610000
C  -1.5856250000  -1.4233460000  1.5724590000
H  -2.5696900000  -1.0871000000  1.8978330000
H  -1.4905620000  -2.4836590000  1.8167340000
H  -0.8319150000  -0.8870410000  2.1447990000
C  -1.6276340000  2.4261920000  -1.0175690000
H  -2.6211740000  2.7250760000  -0.6818470000
H  -0.9749170000  3.2996480000  -0.9593630000
H  -1.6883850000  2.1048060000  -2.0592260000
C  -1.1205070000  1.7513500000  1.3215620000
H  -0.7345310000  2.7698680000  1.3966730000
H  -2.1494070000  1.7494240000  1.6808060000
H  -0.5191760000  1.1315490000  1.9829910000
H  -3.7239310000  0.3396580000  -0.8118780000
N  2.2750740000  -0.5436150000  -0.4720060000
C  3.3625740000  -0.0130340000  0.1464980000
C  4.6995960000  -0.3265870000  -0.4839660000
H  5.1782540000  0.6110150000  -0.7686510000
H  5.3319700000  -0.8048010000  0.2643080000
H  4.6281890000  -0.9731670000  -1.3594550000
O  3.2723290000  0.6678650000  1.1517970000
H  2.4008930000  -1.0425010000  -1.3377830000