16
charge=0, multiplicity=2, basis=def2-QZVPP, AUX_BASIS_CORR=rimp2-def2-QZVPPD, SCF_ALGORITHM=GDM, xc_grid=000099000590, mem_total=7500, num_basis=750, num_pairs=232137, num_threads=2
C  0.0185280000  1.2185110000  0.0001600000
C  1.3918270000  1.2167300000  0.0001610000
C  2.1272260000  0.0000000000  -0.0000020000
C  1.3918260000  -1.2167300000  -0.0001640000
C  0.0185280000  -1.2185110000  -0.0001600000
C  -0.6567740000  0.0000000000  0.0000010000
H  -0.5491340000  2.1379490000  0.0002780000
H  -0.5491340000  -2.1379490000  -0.0002770000
H  1.9315940000  -2.1557280000  -0.0002920000
H  1.9315940000  2.1557280000  0.0002880000
C  3.5229170000  0.0000000000  -0.0000040000
H  4.0802910000  0.9273130000  0.0001200000
H  4.0802910000  -0.9273130000  -0.0001290000
N  -2.1190400000  0.0000000000  0.0000020000
O  -2.6860430000  -1.0780330000  -0.0000360000
O  -2.6860430000  1.0780330000  0.0000420000