47
charge=0, multiplicity=1, basis=def2-QZVPP, mem_total=120000, AUX_BASIS_CORR=rimp2-def2-QZVPPD, SCF_ALGORITHM=GDM, xc_grid=000099000590, num_basis=1977, num_pairs=1202461, num_threads=32
C  1.9620750000  -1.1823070000  -0.3488620000
C  0.4815490000  -0.8770820000  -0.5708670000
C  0.0378560000  0.2418540000  0.3811900000
C  2.8014030000  0.0762000000  -0.5446380000
H  2.0989290000  -1.5656160000  0.6758300000
C  2.3279420000  1.2247420000  0.3294720000
H  3.8541470000  -0.1143350000  -0.3291730000
H  2.7284830000  0.3806200000  -1.5928230000
C  0.8451350000  1.5137810000  0.1123270000
H  2.4815730000  0.9607900000  1.3889290000
C  -0.3739730000  -2.1009760000  -0.4488870000
C  -1.5457680000  -2.1208360000  0.1770410000
C  -1.5014000000  0.3964800000  0.4099230000
C  -2.1456880000  -0.9372070000  0.8858410000
H  0.5297000000  2.3099370000  0.7879160000
H  0.6932710000  1.8613980000  -0.9109680000
C  -2.1247320000  -1.1936530000  2.4002760000
H  -2.7591960000  -2.0672250000  2.5964820000
H  -2.5544980000  -0.3553250000  2.9461750000
C  -2.0415470000  0.7305380000  -0.9814190000
C  -3.9818660000  1.0165570000  -2.2778950000
H  -3.6336400000  0.3442730000  -3.0615660000
H  -3.7298120000  2.0410480000  -2.5510050000
H  -5.0535290000  0.9115390000  -2.1305670000
O  -3.3838720000  0.6722280000  -1.0252570000
O  2.3264060000  -2.2037520000  -1.2617220000
O  3.1572420000  2.3322200000  0.0214940000
O  -1.3879860000  1.0614250000  -1.9356200000
O  -0.8341830000  -1.3963100000  2.9489570000
H  -0.4153750000  -2.1132540000  2.4601350000
C  3.5601910000  -2.8252220000  -0.9927140000
H  4.4085940000  -2.1518510000  -1.1541650000
H  3.5981990000  -3.1989770000  0.0389680000
H  3.6493260000  -3.6676030000  -1.6776200000
C  3.0651460000  3.4069530000  0.9245770000
H  3.8546400000  4.1111300000  0.6646880000
H  2.1013720000  3.9238640000  0.8599160000
H  3.2151760000  3.0700750000  1.9589610000
C  -1.9251570000  1.5576470000  1.3248800000
H  -1.6789090000  2.5224730000  0.8802780000
H  -3.0014260000  1.5377320000  1.5006540000
H  -1.4104070000  1.4886760000  2.2843980000
H  -2.1168640000  -3.0450270000  0.2133270000
H  -0.0033410000  -2.9937330000  -0.9396820000
H  -3.2075090000  -0.8864350000  0.6307500000
H  0.2866610000  -0.0793560000  1.3976560000
H  0.3965840000  -0.5161360000  -1.6017900000