22
charge=0, multiplicity=2, basis=def2-QZVPP, mem_total=15000, AUX_BASIS_CORR=rimp2-def2-QZVPPD, SCF_ALGORITHM=GDM, xc_grid=000099000590, num_basis=916, num_pairs=341271, num_threads=4
C  2.4646850000  -0.7152740000  0.1636470000
C  2.5758870000  0.6569440000  0.2033290000
C  1.4575180000  1.2040000000  -0.3987660000
C  0.5718060000  0.0809780000  -0.8204930000
H  3.4077880000  1.1948380000  0.6321540000
H  3.1124370000  -1.4989460000  0.5199260000
O  1.3170760000  -1.1143620000  -0.4461040000
Si  -1.1295410000  0.0036400000  0.0595610000
C  -2.0654580000  1.5713090000  -0.3748260000
H  -3.0616180000  1.5664670000  0.0749720000
H  -1.5442310000  2.4599830000  -0.0111290000
H  -2.1942710000  1.6755220000  -1.4552530000
C  -2.0396000000  -1.5097350000  -0.5642980000
H  -3.0003830000  -1.6322340000  -0.0577750000
H  -2.2356100000  -1.4428390000  -1.6373620000
H  -1.4481330000  -2.4108170000  -0.3880550000
C  -0.8225690000  -0.1098030000  1.9013320000
H  -0.2461590000  -1.0055910000  2.1418400000
H  -0.2611640000  0.7551850000  2.2607530000
H  -1.7633370000  -0.1564720000  2.4556320000
H  0.4218500000  0.0397770000  -1.9095660000
H  1.2361850000  2.2485460000  -0.5507140000