57
charge=1, multiplicity=1, basis=def2-QZVPP, mem_total=120000, AUX_BASIS_CORR=rimp2-def2-QZVPPD, SCF_ALGORITHM=GDM, xc_grid=000099000590, num_basis=2439, num_pairs=1526519, num_threads=32
C  1.2614610000  -0.7702970000  -0.4489120000
C  2.1498410000  1.7378480000  -0.4476770000
C  3.5382950000  1.1512520000  -0.7291400000
C  3.7291070000  -0.2294060000  -0.1298150000
C  2.7052060000  -1.1763210000  -0.7445940000
H  3.6867010000  1.0967860000  -1.8127730000
H  4.2785730000  1.8497530000  -0.3342650000
H  3.5840260000  -0.1988300000  0.9514370000
H  2.8595160000  -1.2072010000  -1.8273820000
H  2.8598390000  -2.1834020000  -0.3576280000
N  1.1163220000  0.6923010000  -0.7014480000
O  -0.0873060000  1.1176310000  -0.8101940000
C  0.3089560000  -1.5092010000  -1.3876470000
H  0.4839390000  -2.5807820000  -1.2875150000
H  -0.7353490000  -1.3112180000  -1.1487270000
H  0.4892310000  -1.2276590000  -2.4256500000
C  0.8856230000  -1.0820820000  1.0100450000
H  -0.1427740000  -0.7876740000  1.2222470000
H  0.9480650000  -2.1609700000  1.1544340000
H  1.5530090000  -0.6172100000  1.7326840000
C  1.8847530000  2.9042250000  -1.3989540000
H  0.9505470000  3.4125500000  -1.1657930000
H  2.6959660000  3.6267250000  -1.3027620000
H  1.8493930000  2.5623900000  -2.4339450000
C  2.0359550000  2.2267400000  1.0061440000
H  2.7478620000  3.0400680000  1.1521300000
H  1.0440020000  2.6312220000  1.2108310000
H  2.2649160000  1.4497960000  1.7332900000
C  -1.5806350000  1.6686040000  1.1624750000
H  -1.0098630000  1.3346130000  2.0292150000
H  -0.6421570000  1.2708630000  0.1843590000
C  -2.6700030000  0.7815580000  0.7359800000
C  -3.3120210000  0.8833910000  -0.5053350000
C  -2.9876850000  -0.2787590000  1.5942290000
C  -4.2767110000  -0.0380340000  -0.8649370000
H  -3.0419830000  1.6565230000  -1.2096240000
C  -3.9604260000  -1.1970340000  1.2453570000
H  -2.4861840000  -0.3720820000  2.5497790000
C  -4.5851770000  -1.0561540000  0.0200650000
H  -4.7854010000  0.0136250000  -1.8172790000
H  -4.2370610000  -2.0123450000  1.8990350000
O  -1.5799300000  2.9907850000  1.1196060000
C  -2.4794090000  3.7548800000  0.3008760000
H  -2.1783890000  3.6912450000  -0.7451100000
H  -3.5038430000  3.4094670000  0.4337550000
H  -2.3771800000  4.7774380000  0.6508100000
N  -5.6180680000  -2.0465450000  -0.3697180000
O  -6.1582700000  -1.8843860000  -1.4419610000
O  -5.8417040000  -2.9441620000  0.4120910000
N  5.0822250000  -0.7019520000  -0.3305420000
C  5.5780930000  -1.6970140000  0.4654330000
O  4.8982840000  -2.1799190000  1.3515160000
C  6.9881190000  -2.1417030000  0.1852880000
H  6.9800710000  -3.2081110000  -0.0415960000
H  7.5810530000  -2.0048320000  1.0899430000
H  7.4588020000  -1.6022500000  -0.6368120000
H  5.6326890000  -0.3496630000  -1.0968810000