26
charge=0, multiplicity=1, basis=def2-QZVPP, mem_total=30000, AUX_BASIS_CORR=rimp2-def2-QZVPPD, SCF_ALGORITHM=GDM, xc_grid=000099000590, num_basis=1104, num_pairs=496764, num_threads=8
C  1.4658110000  1.0563220000  0.4877230000
C  0.6909340000  -1.0127360000  0.6331340000
C  -0.6909340000  -1.0127360000  0.6331340000
C  -1.4658110000  1.0563220000  0.4877230000
C  0.6972460000  1.6195180000  -0.5094980000
C  -0.6972460000  1.6195180000  -0.5094980000
C  1.6308790000  -1.3226580000  -0.4910470000
H  1.1532350000  -1.1703200000  1.6032550000
C  2.8646540000  0.6227360000  0.1641800000
H  1.1666370000  1.1422070000  1.5236340000
O  2.9039080000  -0.7685180000  -0.2107180000
H  1.2315770000  -0.9741770000  -1.4517260000
H  1.8117280000  -2.3976350000  -0.5716010000
H  3.5474490000  0.7316050000  1.0077420000
H  3.2517370000  1.2111440000  -0.6737970000
C  -1.6308790000  -1.3226580000  -0.4910470000
H  -1.1532350000  -1.1703200000  1.6032550000
O  -2.9039080000  -0.7685180000  -0.2107180000
H  -1.1837510000  1.8262230000  -1.4587110000
H  1.1837510000  1.8262230000  -1.4587110000
C  -2.8646540000  0.6227360000  0.1641800000
H  -1.2315770000  -0.9741770000  -1.4517260000
H  -1.8117280000  -2.3976350000  -0.5716010000
H  -3.2517370000  1.2111440000  -0.6737970000
H  -3.5474490000  0.7316050000  1.0077420000
H  -1.1666370000  1.1422070000  1.5236340000