32
charge=1, multiplicity=1, basis=def2-QZVPP, mem_total=30000, AUX_BASIS_CORR=rimp2-def2-QZVPPD, SCF_ALGORITHM=GDM, xc_grid=000099000590, num_basis=1365, num_pairs=626684, num_threads=8
C  -1.6759940000  -0.8629100000  0.3022070000
N  -0.3443410000  -0.7776930000  0.1804380000
N  0.3961100000  0.1766100000  0.2202120000
C  1.7844210000  0.0373940000  0.0432530000
C  2.5203450000  1.2159830000  0.1344660000
C  2.4012500000  -1.1906540000  -0.2087110000
C  3.8946310000  1.1681220000  -0.0275560000
H  2.0112350000  2.1505440000  0.3316400000
C  3.7707680000  -1.2239560000  -0.3688110000
H  1.8076820000  -2.0932670000  -0.2752660000
C  4.5151920000  -0.0478760000  -0.2783950000
H  4.4802740000  2.0752780000  0.0413010000
H  4.2682530000  -2.1648740000  -0.5649850000
H  5.5899480000  -0.0855330000  -0.4054950000
C  -2.4451080000  -1.1091610000  -0.9726680000
C  -2.1593980000  -1.4828430000  1.5816970000
H  -1.6729980000  -1.0405220000  2.4505500000
H  -3.2388760000  -1.3758450000  1.6684040000
H  -1.9296150000  -2.5517100000  1.5643330000
C  -2.3785870000  1.2566710000  0.4884410000
C  -1.2071900000  1.9410340000  0.5659610000
H  -2.8713120000  1.0147560000  1.4257990000
H  -0.7319890000  2.1440370000  1.5164780000
H  -0.7885840000  2.4378060000  -0.3010090000
C  -3.2335890000  1.2123430000  -0.7494110000
H  -4.0953830000  1.8722650000  -0.6258170000
H  -2.6636960000  1.5854560000  -1.6050320000
C  -3.6892990000  -0.2213080000  -1.0061930000
H  -1.8038240000  -0.8893940000  -1.8279940000
H  -2.7119070000  -2.1688200000  -1.0158070000
H  -4.4026120000  -0.5360610000  -0.2400810000
H  -4.1936390000  -0.3235730000  -1.9672450000