16
charge=-1, multiplicity=1, basis=def2-QZVPP, AUX_BASIS_CORR=rimp2-def2-QZVPPD, SCF_ALGORITHM=GDM, xc_grid=000099000590, mem_total=7500, num_basis=669, num_pairs=196917, num_threads=2
C  1.1432590000  1.4296180000  -0.4663510000
C  1.3515320000  0.0305700000  0.0434680000
C  0.5114730000  -1.0462180000  -0.5896200000
O  2.1451570000  -0.2137860000  0.9338900000
C  -0.9417120000  -1.0485490000  -0.0507930000
C  -1.7795920000  0.1428310000  -0.4543340000
C  -2.5717910000  0.6257650000  0.5125110000
H  1.6179040000  2.1500240000  0.2004630000
H  1.5810310000  1.5079230000  -1.4671670000
H  0.0667710000  1.6077820000  -0.5793350000
H  -3.2532870000  1.4633490000  0.3511090000
H  -2.5983900000  0.2149600000  1.5426790000
H  0.9977550000  -2.0044170000  -0.3878110000
H  0.4559830000  -0.8761820000  -1.6691200000
H  -1.4087560000  -1.9452580000  -0.4783300000
H  -0.8992830000  -1.2119940000  1.0470990000