9
charge=0, multiplicity=2, basis=def2-QZVPP, AUX_BASIS_CORR=rimp2-def2-QZVPPD, SCF_ALGORITHM=GDM, xc_grid=000099000590, mem_total=3750, num_basis=378, num_pairs=70384, num_threads=1
O  -1.5268020000  -0.5201610000  0.0002550000
C  -0.9419770000  0.5000640000  0.0000760000
C  0.5512950000  0.7303730000  -0.0001770000
C  1.3780870000  -0.5515740000  -0.0000960000
H  0.7628460000  1.3583220000  0.8698330000
H  0.7625770000  1.3580340000  -0.8704640000
H  1.1607980000  -1.1565850000  0.8808180000
H  2.4432930000  -0.3147570000  -0.0003340000
H  1.1604730000  -1.1569060000  -0.8807090000