20
charge=0, multiplicity=2, basis=def2-QZVPP, AUX_BASIS_CORR=rimp2-def2-QZVPPD, SCF_ALGORITHM=GDM, xc_grid=000099000590, mem_total=15000, num_basis=843, num_pairs=290726, num_threads=4
C  -1.6077000000  0.0000000000  -0.0000110000
C  -0.1849360000  0.0000000000  -0.0000070000
C  -2.3675190000  -1.2901410000  0.0000670000
C  -2.3675180000  1.2901410000  -0.0000630000
C  0.5580650000  1.2062270000  0.0000360000
C  0.5580650000  -1.2062270000  -0.0000410000
H  -2.1326230000  -1.9025290000  -0.8781170000
H  -3.4429060000  -1.1145850000  0.0002480000
H  -2.1323310000  -1.9025990000  0.8781190000
H  -2.1322500000  1.9026660000  -0.8780440000
H  -2.1327040000  1.9024610000  0.8781920000
H  -3.4429050000  1.1145850000  -0.0003550000
C  1.9388670000  1.2006340000  0.0000430000
C  2.6439900000  0.0000000000  0.0000040000
C  1.9388680000  -1.2006340000  -0.0000380000
H  0.0376500000  -2.1546730000  -0.0000790000
H  2.4762210000  2.1418610000  0.0000810000
H  3.7268930000  0.0000000000  0.0000080000
H  2.4762210000  -2.1418610000  -0.0000700000
H  0.0376490000  2.1546730000  0.0000760000