31
charge=0, multiplicity=2, basis=def2-QZVPP, mem_total=30000, AUX_BASIS_CORR=rimp2-def2-QZVPPD, SCF_ALGORITHM=GDM, xc_grid=000099000590, num_basis=1254, num_pairs=623326, num_threads=8
C  1.4787590000  -1.4724520000  -0.2501730000
C  2.8780840000  -0.8518350000  -0.1669330000
C  2.9068600000  0.3999810000  0.7162430000
C  1.8685400000  1.4410400000  0.2837180000
C  0.4911110000  0.8001890000  0.2235370000
C  0.4828390000  -0.4165100000  -0.7008250000
C  -0.6761780000  1.6377810000  -0.2996420000
C  -1.7283700000  0.6211180000  -0.8235210000
C  -1.0135260000  -0.7686230000  -0.7921410000
C  -1.5835740000  -1.4409020000  0.4165730000
C  -2.9682420000  0.4566500000  0.0685830000
H  -2.0266660000  0.8916780000  -1.8373170000
C  -2.5668950000  -0.5786750000  1.1314750000
H  -3.7938200000  0.0560880000  -0.5260490000
H  -3.3042730000  1.4040460000  0.4952960000
H  -1.2678010000  -2.4150010000  0.7670220000
H  -3.4207170000  -1.1334830000  1.5318110000
H  -2.0985300000  -0.0807260000  1.9958620000
H  -1.0913220000  2.3040920000  0.4605670000
H  -0.3272740000  2.2710090000  -1.1212260000
H  1.4832680000  -2.3271240000  -0.9338790000
H  1.1873400000  -1.8535120000  0.7347420000
H  3.2073130000  -0.5831440000  -1.1777110000
H  3.5959870000  -1.5866870000  0.2074950000
H  1.8767950000  2.2927410000  0.9707890000
H  2.1274550000  1.8324110000  -0.7081360000
H  2.7040540000  0.1091170000  1.7537540000
H  3.9088000000  0.8377040000  0.7075560000
H  0.2424590000  0.4428750000  1.2321520000
H  0.7907230000  -0.0688700000  -1.6983550000
H  -1.2102400000  -1.3597810000  -1.6957250000