42
charge=1, multiplicity=1, basis=def2-QZVPP, AUX_BASIS_CORR=rimp2-def2-QZVPPD, SCF_ALGORITHM=GDM, xc_grid=000099000590, mem_total=120000, num_basis=1773, num_pairs=1064843, num_threads=32
C  -0.9578800000  -2.9349990000  -0.8397090000
C  -0.2340620000  -1.8711100000  -0.0074050000
C  -2.3538390000  -1.5146630000  0.5222830000
C  -2.4496760000  -2.6294210000  -0.5238030000
H  -0.7187770000  -2.8395680000  -1.8964460000
H  -0.6779540000  -3.9363030000  -0.5119200000
H  -3.0229000000  -2.3208130000  -1.4005790000
H  -2.9676860000  -3.4850380000  -0.0918020000
C  -1.0692530000  -1.8412530000  1.2766430000
H  -0.7642420000  -1.0864540000  2.0002970000
H  -1.1305510000  -2.8091540000  1.7713250000
H  0.8381800000  -1.9952120000  0.0873740000
H  -3.2586720000  -1.2858270000  1.0792870000
N  -1.8998430000  -0.2623930000  -0.2150020000
N  -0.5398950000  -0.5712400000  -0.6578240000
C  0.2736770000  0.6512250000  -0.4254220000
C  1.7288950000  0.3459600000  -0.1711880000
C  2.2238670000  0.0447920000  1.0960900000
C  2.6041690000  0.3406450000  -1.2530500000
C  3.5648980000  -0.2595630000  1.2741150000
H  1.5715430000  0.0442780000  1.9609560000
C  3.9467070000  0.0364860000  -1.0777870000
H  2.2318540000  0.5787150000  -2.2431580000
C  4.4290260000  -0.2649860000  0.1870600000
H  3.9379960000  -0.4868090000  2.2649160000
H  4.6159130000  0.0409570000  -1.9289040000
H  5.4770420000  -0.4973510000  0.3284600000
C  -1.9082490000  1.0106500000  0.6221800000
C  -0.4492960000  1.4954900000  0.6421890000
C  -0.5177570000  2.9786020000  0.2510630000
H  -0.6852300000  3.5928140000  1.1385410000
H  0.4104980000  3.3198680000  -0.2087890000
C  -2.7475280000  2.1307590000  -0.0074210000
H  -3.2615060000  2.6613790000  0.7959550000
C  -1.7303380000  3.0595270000  -0.6804880000
H  -2.1097000000  4.0731220000  -0.8015080000
H  -1.4745610000  2.6945470000  -1.6794470000
H  -3.5275980000  1.7581070000  -0.6771460000
H  0.2272200000  1.2028150000  -1.3671190000
H  0.0011260000  1.3487920000  1.6209200000
H  -2.2764340000  0.7168210000  1.6018150000
H  -2.4775520000  -0.1230910000  -1.0453510000