35
charge=0, multiplicity=1, basis=def2-QZVPP, AUX_BASIS_CORR=rimp2-def2-QZVPPD, SCF_ALGORITHM=GDM, xc_grid=000099000590, mem_total=60000, num_basis=1536, num_pairs=718857, num_threads=16
C  -4.7543640000  -1.5909780000  -0.2792320000
C  -3.3854220000  -1.7358210000  -0.1355790000
C  -2.5580460000  -0.6255500000  0.0168160000
C  -3.1173750000  0.6499530000  0.0285040000
C  -4.4967490000  0.7872260000  -0.1156690000
C  -5.3144960000  -0.3189600000  -0.2695800000
H  -5.3832320000  -2.4646390000  -0.4003810000
H  -2.9449500000  -2.7276800000  -0.1451220000
H  -4.9310330000  1.7814720000  -0.1038530000
H  -6.3847110000  -0.1924630000  -0.3800640000
C  -0.8797560000  1.4868760000  0.7608300000
H  -0.2031450000  2.3369450000  0.7223280000
H  -0.9841670000  1.2043440000  1.8221750000
N  -0.3150000000  0.3776870000  0.0005090000
C  1.0902890000  0.2589010000  -0.0165820000
C  1.8694890000  1.3538300000  -0.4216670000
C  1.7561210000  -0.9167480000  0.3076930000
C  3.2420950000  1.2753090000  -0.4766560000
H  1.3815660000  2.2722780000  -0.7227590000
C  3.1474440000  -1.0093890000  0.2361140000
H  1.2052430000  -1.7899860000  0.6270930000
C  3.8976620000  0.0880270000  -0.1474660000
H  3.8361390000  2.1227530000  -0.7949150000
H  3.6190720000  -1.9472730000  0.4938620000
C  -2.2344630000  1.8610650000  0.1859300000
H  -2.0869090000  2.3318130000  -0.7912080000
H  -2.7230660000  2.5974180000  0.8297910000
C  -1.0733240000  -0.8395040000  0.1927740000
O  5.2574920000  0.1089130000  -0.2432620000
C  5.9600740000  -1.0712890000  0.0762420000
H  7.0146750000  -0.8439120000  -0.0632930000
H  5.7894940000  -1.3689880000  1.1160010000
H  5.6778530000  -1.8961440000  -0.5862050000
H  -0.7326200000  -1.5807530000  -0.5328900000
H  -0.9002260000  -1.2679950000  1.1971410000