41
charge=0, multiplicity=2, basis=def2-QZVPP, AUX_BASIS_CORR=rimp2-def2-QZVPPD, SCF_ALGORITHM=GDM, xc_grid=000099000590, mem_total=60000, num_basis=1770, num_pairs=970525, num_threads=16
C  -0.9886530000  -1.7025230000  1.8567430000
C  -1.6816800000  -2.8224600000  1.0658480000
C  -1.9645680000  -2.4461140000  -0.3895800000
H  -2.6212420000  -3.0797120000  1.5657430000
H  -1.0641280000  -3.7256170000  1.0893830000
C  -2.9100610000  -1.3087400000  -0.5053890000
H  -2.3522650000  -3.3285610000  -0.9218870000
H  -1.0334540000  -2.1732220000  -0.8957890000
C  0.3797760000  -1.4179850000  1.3204020000
H  -0.9099670000  -2.0097740000  2.9050130000
H  -1.6101640000  -0.8080880000  1.8274950000
C  0.8052490000  -0.3085160000  0.7089040000
H  2.4791440000  1.8112240000  0.6685710000
C  2.9123250000  0.9398900000  0.1928170000
C  2.1686870000  -0.2393510000  0.1186270000
C  2.7386830000  -1.3410870000  -0.5207250000
H  2.1608590000  -2.2511070000  -0.6263610000
C  4.0216060000  -1.2761950000  -1.0438860000
H  4.4428200000  -2.1415200000  -1.5418860000
C  4.7574860000  -0.1034880000  -0.9456860000
H  5.7579100000  -0.0505600000  -1.3578650000
C  4.1958950000  1.0053310000  -0.3266210000
H  4.7599290000  1.9272660000  -0.2490690000
H  -1.2820060000  2.9572110000  -1.8362480000
C  -1.0794950000  2.5704160000  -0.8444160000
C  -0.3041930000  1.4316760000  -0.6965150000
H  0.0954760000  0.9317910000  -1.5704760000
C  -0.0368160000  0.9116740000  0.5695730000
C  -0.5506860000  1.5704240000  1.6839930000
H  -0.3294000000  1.1872450000  2.6729810000
C  -1.3268440000  2.7125540000  1.5384920000
H  -1.7156250000  3.2145050000  2.4165880000
C  -1.5948700000  3.2152520000  0.2733900000
H  -2.1960640000  4.1093450000  0.1583880000
O  -2.9548790000  -0.7044770000  -1.7182500000
C  -3.8629340000  0.3768950000  -1.8086620000
H  -3.8147980000  0.7496110000  -2.8300820000
H  -3.5816740000  1.1719880000  -1.1135330000
H  -4.8838670000  0.0434400000  -1.5921410000
H  -3.8190550000  -1.2615080000  0.0935930000
H  1.0831540000  -2.2440620000  1.3997390000