16
charge=0, multiplicity=2, basis=def2-QZVPP, AUX_BASIS_CORR=rimp2-def2-QZVPPD, SCF_ALGORITHM=GDM, xc_grid=000099000590, mem_total=7500, num_basis=804, num_pairs=267597, num_threads=2
C  -0.4521280000  0.6957780000  -0.0000660000
C  -0.4521290000  -0.6957790000  0.0001550000
C  -1.6309690000  -1.4153880000  0.0003910000
C  -2.8218830000  -0.6969800000  0.0004010000
C  -2.8218830000  0.6969800000  0.0001800000
C  -1.6309690000  1.4153880000  -0.0000580000
C  0.9409130000  1.1962600000  -0.0002910000
C  0.9409130000  -1.1962610000  0.0000930000
H  -1.6184530000  -2.4977430000  0.0005620000
H  -3.7661010000  -1.2271490000  0.0005840000
H  -3.7661010000  1.2271490000  0.0001940000
H  -1.6184530000  2.4977430000  -0.0002310000
O  1.3740370000  -2.3050960000  0.0002240000
O  1.3740370000  2.3050960000  -0.0005060000
N  1.7547390000  0.0000000000  -0.0001790000
O  3.0087700000  0.0000000000  -0.0003050000