21
charge=0, multiplicity=2, basis=def2-QZVPP, AUX_BASIS_CORR=rimp2-def2-QZVPPD, SCF_ALGORITHM=GDM, xc_grid=000099000590, mem_total=15000, num_basis=954, num_pairs=342353, num_threads=4
H  4.5114790000  1.1583160000  -0.1442950000
C  3.4503390000  -1.1692460000  0.1822860000
H  3.4094420000  -1.7886150000  -0.7181000000
H  3.0478270000  -1.7337490000  1.0236330000
N  2.7168170000  0.0757110000  0.0034740000
C  1.3340170000  0.0526760000  0.0095140000
C  0.5913100000  1.2454000000  0.1009210000
C  0.6352640000  -1.1660370000  -0.0742260000
C  -0.7852340000  1.2184740000  0.0946270000
H  1.0961030000  2.1928290000  0.2137720000
C  -0.7426900000  -1.1896960000  -0.0786630000
H  1.1685070000  -2.1012440000  -0.1555850000
C  -1.4472030000  0.0021680000  0.0014220000
H  -1.3600290000  2.1301910000  0.1748940000
H  -1.2834810000  -2.1224710000  -0.1516680000
H  4.4904620000  -0.9324930000  0.3910520000
C  3.4391980000  1.2208300000  -0.2121770000
H  2.9564850000  2.0881930000  -0.6263830000
N  -2.9037370000  -0.0236750000  -0.0056300000
O  -3.4931050000  1.0416970000  0.0575990000
O  -3.4541890000  -1.1095250000  -0.0744060000