17
charge=0, multiplicity=1, basis=def2-QZVPP, AUX_BASIS_CORR=rimp2-def2-QZVPPD, SCF_ALGORITHM=GDM, xc_grid=000099000590, mem_total=7500, num_basis=766, num_pairs=252775, num_threads=2
N  -0.6125110000  -1.0913910000  -0.2782030000
H  0.0703650000  -1.5260480000  -0.8859640000
C  -0.1191020000  -0.0615000000  0.6221430000
H  -0.7455230000  -0.0962020000  1.5184670000
C  1.3210810000  -0.3503540000  1.0265780000
C  -0.2718090000  1.3501560000  0.0217850000
H  1.7047820000  0.4785880000  1.6161000000
H  1.3497810000  -1.2527280000  1.6369370000
S  2.4608630000  -0.6694200000  -0.3626230000
O  0.6900250000  2.0582740000  -0.2115730000
H  2.3990570000  0.5765620000  -0.8636860000
N  -1.5486170000  1.7211340000  -0.1958650000
H  -2.3165490000  1.0932330000  0.0129590000
H  -1.7197850000  2.6250160000  -0.6065490000
C  -1.9121800000  -1.4206690000  -0.3830900000
H  -2.0946620000  -2.2560800000  -1.0757360000
O  -2.8151900000  -0.8639760000  0.2169990000