29
charge=0, multiplicity=1, basis=def2-QZVPP, mem_total=30000, AUX_BASIS_CORR=rimp2-def2-QZVPPD, SCF_ALGORITHM=GDM, xc_grid=000099000590, num_basis=1275, num_pairs=622472, num_threads=8
C  2.6636830000  -1.2946920000  0.0423940000
C  2.2265630000  -0.2974310000  1.1089850000
C  0.8164230000  0.1906040000  0.9043860000
C  -0.1381700000  -0.6206210000  0.3192510000
C  0.2658920000  -1.8066440000  -0.5188590000
C  1.6158020000  -2.3907770000  -0.1120610000
H  3.6333680000  -1.7225270000  0.3061340000
H  2.7915980000  -0.7795490000  -0.9159700000
H  2.9178750000  0.5437110000  1.1702350000
H  2.2662470000  -0.7765850000  2.0951070000
H  -0.5090390000  -2.5738290000  -0.4772730000
H  0.3075750000  -1.4768230000  -1.5659180000
H  1.9313300000  -3.1279430000  -0.8532070000
H  1.5091080000  -2.9241510000  0.8382490000
C  -1.4761790000  -0.1732110000  0.2503120000
C  -1.9430060000  0.7736130000  1.2238200000
C  -2.4893370000  -1.0354650000  -0.2872040000
H  0.4730730000  0.9536770000  1.5941940000
N  -2.2941140000  1.5504060000  1.9936730000
N  -3.2904190000  -1.7156800000  -0.7513140000
C  -1.4137510000  1.3026800000  -1.4147340000
H  -2.2540410000  1.8950230000  -1.0707660000
C  -0.1499370000  1.7464290000  -1.2113680000
H  -1.6169300000  0.6422580000  -2.2515010000
C  0.9761300000  1.7609520000  -0.6983930000
C  2.3185960000  2.3420870000  -0.5857580000
H  2.3987740000  3.1847030000  -1.2747080000
H  2.5092240000  2.7122090000  0.4232590000
H  3.0973080000  1.6216020000  -0.8389750000