10
charge=-1, multiplicity=1, basis=def2-QZVPP, AUX_BASIS_CORR=rimp2-def2-QZVPPD, SCF_ALGORITHM=GDM, xc_grid=000099000590, mem_total=3750, num_basis=435, num_pairs=87949, num_threads=1
C  -0.0919750000  0.8772860000  0.1781780000
C  -1.2104300000  0.1620930000  0.0602540000
C  -2.2302130000  -0.6138450000  0.0443310000
O  1.1369310000  0.4614160000  -0.4128760000
C  1.6246360000  -0.7328440000  0.1372810000
H  -2.9407410000  -0.4967510000  -0.7801230000
H  0.0000250000  1.8105490000  0.7212150000
H  2.5370470000  -1.0017840000  -0.4064910000
H  1.8622260000  -0.6142460000  1.2058470000
H  0.8938840000  -1.5452330000  0.0422980000