26
charge=0, multiplicity=2, basis=def2-QZVPP, mem_total=30000, AUX_BASIS_CORR=rimp2-def2-QZVPPD, SCF_ALGORITHM=GDM, xc_grid=000099000590, num_basis=1225, num_pairs=442473, num_threads=8
C  4.5950220000  0.7655280000  -0.7219310000
C  4.5950220000  -0.7655280000  -0.7219300000
C  3.1989840000  1.1689830000  -0.2573290000
N  2.4822480000  0.0000000000  -0.1000140000
C  3.1989840000  -1.1689830000  -0.2573290000
O  2.7991490000  -2.2864050000  -0.0705810000
O  2.7991490000  2.2864050000  -0.0705810000
Cl  0.6266900000  0.0000000000  0.6101120000
H  4.7672260000  1.2022980000  -1.7059400000
H  5.3215770000  1.2038950000  -0.0374880000
H  5.3215770000  -1.2038950000  -0.0374880000
H  4.7672260000  -1.2022980000  -1.7059400000
C  -1.0371500000  0.0000000000  1.8869490000
C  -2.1740970000  0.0000000000  0.9995810000
C  -2.7242630000  1.2084520000  0.5435710000
H  -0.8360430000  0.9111360000  2.4358290000
H  -0.8360430000  -0.9111350000  2.4358290000
C  -2.7242630000  -1.2084510000  0.5435720000
H  -2.2923220000  2.1457630000  0.8727310000
C  -3.8011590000  1.2149550000  -0.3197170000
C  -3.8011590000  -1.2149550000  -0.3197170000
C  -4.3188330000  0.0000000000  -0.7345130000
H  -2.2923220000  -2.1457620000  0.8727320000
H  -4.2420540000  2.1354250000  -0.6783580000
H  -4.2420540000  -2.1354260000  -0.6783570000
F  -5.3661250000  0.0000000000  -1.5737010000