12
charge=0, multiplicity=1, basis=def2-QZVPP, AUX_BASIS_CORR=rimp2-def2-QZVPPD, SCF_ALGORITHM=GDM, xc_grid=000099000590, mem_total=3750, num_basis=589, num_pairs=158860, num_threads=1
C  0.0000010000  -1.8784880000  0.7658060000
C  0.0000010000  -1.8784880000  -0.7658060000
C  0.0000010000  -0.4226720000  1.1841700000
N  0.0000120000  0.3244540000  0.0000000000
C  0.0000010000  -0.4226720000  -1.1841700000
O  -0.0000090000  0.0338570000  -2.2879210000
O  -0.0000090000  0.0338570000  2.2879210000
Cl  0.0000030000  2.0134830000  0.0000000000
H  0.8782190000  -2.3570440000  1.1993750000
H  -0.8782180000  -2.3570440000  1.1993750000
H  -0.8782180000  -2.3570440000  -1.1993750000
H  0.8782190000  -2.3570440000  -1.1993750000