39
charge=0, multiplicity=1, basis=def2-QZVPP, AUX_BASIS_CORR=rimp2-def2-QZVPPD, SCF_ALGORITHM=GDM, xc_grid=000099000590, mem_total=60000, num_basis=1737, num_pairs=990758, num_threads=16
C  1.2023150000  -1.6617040000  0.3713750000
O  0.2318950000  -1.3268760000  1.3598780000
C  2.5482830000  -1.0613880000  0.6610210000
C  3.0585690000  -0.0023250000  0.0358070000
C  4.4274430000  0.5084330000  0.3762550000
C  2.3308900000  0.6790380000  -1.1070220000
C  2.6239230000  2.1757680000  -1.2502690000
C  0.8376830000  0.3391800000  -1.1120650000
C  0.6411690000  -1.1735100000  -0.9674300000
C  -0.8125800000  -1.5796470000  -1.1137560000
O  -1.1088290000  -2.6590850000  -1.5715710000
C  -1.8453830000  -0.6052390000  -0.6558060000
C  -1.4586820000  0.6293350000  -0.1011570000
C  -0.0527700000  1.0646080000  -0.1218700000
O  0.3282490000  2.0167920000  0.5452350000
C  -2.4377580000  1.4617430000  0.4637300000
C  -3.7821500000  1.0887170000  0.3944470000
C  -4.1413110000  -0.1095180000  -0.1872240000
C  -3.1759810000  -0.9716710000  -0.7020810000
C  0.5153120000  -1.7912630000  2.6596560000
O  -2.1371990000  2.6200150000  1.0637360000
H  4.3838060000  1.5355230000  0.7453700000
H  4.8981370000  -0.1113400000  1.1392920000
H  5.0737620000  0.5143200000  -0.5067890000
H  2.0126910000  2.5977100000  -2.0516440000
H  2.3981560000  2.7222440000  -0.3383060000
H  3.6685710000  2.3417850000  -1.5163130000
H  -4.5197350000  1.7578100000  0.8188810000
H  -5.1871410000  -0.3900200000  -0.2242120000
H  -3.4386790000  -1.9344630000  -1.1189170000
H  -1.1586960000  2.6934560000  1.0888100000
H  -0.3697080000  -1.5972510000  3.2632890000
H  0.7163200000  -2.8699660000  2.6565780000
H  1.3683300000  -1.2668030000  3.1011170000
H  3.1331790000  -1.5414580000  1.4390810000
H  0.4332230000  0.6333990000  -2.0894910000
H  2.7261420000  0.2063490000  -2.0183900000
H  1.1896190000  -1.6850600000  -1.7608410000
H  1.2852660000  -2.7563410000  0.3325870000