36
charge=1, multiplicity=1, basis=def2-QZVPP, mem_total=60000, AUX_BASIS_CORR=rimp2-def2-QZVPPD, SCF_ALGORITHM=GDM, xc_grid=000099000590, num_basis=1485, num_pairs=778353, num_threads=16
C  -1.2038220000  -1.3506040000  0.0411420000
C  -1.2038260000  1.3506020000  0.0411440000
C  0.3218630000  1.2485400000  0.1116640000
C  0.8480620000  0.0000030000  0.8188990000
C  0.3218670000  -1.2485370000  0.1116650000
H  0.7355950000  1.2682840000  -0.8969330000
H  0.6725990000  2.1455710000  0.6252970000
H  0.5172480000  0.0000030000  1.8595150000
H  0.7356010000  -1.2682810000  -0.8969320000
H  0.6726040000  -2.1455680000  0.6252980000
N  -1.7704300000  -0.0000020000  -0.4009200000
O  -2.7237080000  -0.0000030000  -1.0929760000
C  -1.6368390000  -2.3839540000  -0.9893630000
H  -1.1503500000  -3.3245700000  -0.7308100000
H  -2.7134810000  -2.5441550000  -0.9894290000
H  -1.3164490000  -2.1053010000  -1.9939520000
C  -1.8518310000  -1.6569250000  1.4033190000
H  -2.9376020000  -1.5648240000  1.3586400000
H  -1.6138680000  -2.6958200000  1.6328890000
H  -1.4708430000  -1.0399810000  2.2123840000
C  -1.6368480000  2.3839530000  -0.9893580000
H  -2.7134910000  2.5441500000  -0.9894220000
H  -1.1503620000  3.3245690000  -0.7308040000
H  -1.3164580000  2.1053030000  -1.9939480000
C  -1.8518350000  1.6569190000  1.4033220000
H  -1.6138750000  2.6958140000  1.6328930000
H  -2.9376050000  1.5648130000  1.3586450000
H  -1.4708440000  1.0399740000  2.2123860000
N  2.3011170000  0.0000080000  0.8722250000
C  3.0929630000  0.0000040000  -0.2453630000
C  4.5777460000  -0.0000070000  -0.0062960000
H  5.0062800000  -0.8784530000  -0.4895630000
H  5.0062940000  0.8784280000  -0.4895710000
H  4.8521880000  -0.0000040000  1.0483330000
O  2.6090870000  0.0000130000  -1.3626090000
H  2.7439920000  -0.0000280000  1.7759910000