36
charge=1, multiplicity=1, basis=def2-QZVPP, AUX_BASIS_CORR=rimp2-def2-QZVPPD, SCF_ALGORITHM=GDM, xc_grid=000099000590, mem_total=60000, num_basis=1485, num_pairs=778362, num_threads=16
C  1.2037910000  1.3506130000  0.0411360000
C  1.2038510000  -1.3505890000  0.0411380000
C  -0.3218400000  -1.2485600000  0.1116620000
C  -0.8480640000  -0.0000330000  0.8188970000
C  -0.3218950000  1.2485170000  0.1116630000
H  -0.7355750000  -1.2683150000  -0.8969330000
H  -0.6725570000  -2.1455980000  0.6252960000
H  -0.5172490000  -0.0000270000  1.8595120000
H  -0.7356320000  1.2682550000  -0.8969330000
H  -0.6726490000  2.1455400000  0.6252980000
N  1.7704360000  0.0000240000  -0.4009080000
O  2.7237410000  0.0000450000  -1.0929280000
C  1.6367880000  2.3839620000  -0.9893780000
H  1.1502790000  3.3245700000  -0.7308320000
H  2.7134260000  2.5441870000  -0.9894440000
H  1.3164020000  2.1052940000  -1.9939640000
C  1.8517950000  1.6569590000  1.4033130000
H  2.9375690000  1.5648940000  1.3586300000
H  1.6137960000  2.6958450000  1.6328850000
H  1.4708310000  1.0399990000  2.2123780000
C  1.6368940000  -2.3839210000  -0.9893740000
H  2.7135390000  -2.5440990000  -0.9894400000
H  1.1504250000  -3.3245500000  -0.7308270000
H  1.3164960000  -2.1052680000  -1.9939600000
C  1.8518670000  -1.6569050000  1.4033160000
H  1.6139140000  -2.6958010000  1.6328890000
H  2.9376370000  -1.5647920000  1.3586340000
H  1.4708750000  -1.0399600000  2.2123800000
N  -2.3011200000  -0.0000710000  0.8722240000
C  -3.0929660000  -0.0000680000  -0.2453640000
C  -4.5777500000  0.0000490000  -0.0062920000
H  -5.0065070000  -0.8778040000  -0.4904260000
H  -4.8521870000  -0.0008890000  1.0483370000
H  -5.0060810000  0.8790760000  -0.4886960000
O  -2.6090900000  -0.0000860000  -1.3626090000
H  -2.7439930000  -0.0000530000  1.7759910000