19
charge=-1, multiplicity=1, basis=def2-QZVPP, AUX_BASIS_CORR=rimp2-def2-QZVPPD, SCF_ALGORITHM=GDM, xc_grid=000099000590, mem_total=15000, num_basis=840, num_pairs=293750, num_threads=4
O  2.7873130000  -1.2731710000  0.1986400000
C  2.4487230000  -0.0113290000  -0.3593530000
C  1.1824920000  0.5956580000  0.2326190000
H  2.3270620000  -0.0833710000  -1.4493200000
H  3.2796300000  0.6689760000  -0.1617870000
C  -0.0741600000  -0.1717880000  -0.1767890000
O  0.0655900000  -1.5379870000  0.2405950000
C  -1.3307010000  0.4959580000  0.4184960000
H  -0.1539450000  -0.1266140000  -1.2713200000
C  -2.5755260000  -0.2594880000  -0.0067240000
O  -2.6383080000  -1.4134760000  -0.3884650000
O  -1.4451330000  1.7993500000  0.0594020000
O  1.0860660000  1.9267990000  -0.2051020000
H  1.2645570000  0.5384620000  1.3314000000
H  0.0926330000  2.1344700000  -0.1427930000
H  -0.7690080000  -1.9688560000  0.0071610000
H  1.9560290000  -1.7662790000  0.2601310000
H  -3.4828240000  0.3776660000  0.0103540000
H  -1.2633240000  0.3193600000  1.5261240000