17
charge=0, multiplicity=1, basis=def2-QZVPP, AUX_BASIS_CORR=rimp2-def2-QZVPPD, SCF_ALGORITHM=GDM, xc_grid=000099000590, mem_total=7500, num_basis=766, num_pairs=252775, num_threads=2
N  -0.6124700000  -1.0914140000  -0.2781650000
H  0.0704200000  -1.5260220000  -0.8859460000
C  -0.1191000000  -0.0614960000  0.6221670000
H  -0.7455140000  -0.0962090000  1.5184950000
C  1.3210970000  -0.3503060000  1.0265930000
C  -0.2718390000  1.3501460000  0.0217790000
H  1.7047820000  0.4786650000  1.6160840000
H  1.3498180000  -1.2526610000  1.6369780000
S  2.4608680000  -0.6693920000  -0.3626120000
O  0.6899820000  2.0582450000  -0.2116840000
N  -1.5486640000  1.7211360000  -0.1957600000
H  -2.3165740000  1.0931960000  0.0130290000
H  -1.7198500000  2.6249690000  -0.6065450000
C  -1.9121430000  -1.4206860000  -0.3831110000
H  -2.0945800000  -2.2560940000  -1.0757750000
O  -2.8151790000  -0.8640130000  0.2169460000
H  2.3990320000  0.5765710000  -0.8637140000