25
charge=0, multiplicity=1, basis=def2-QZVPP, mem_total=30000, AUX_BASIS_CORR=rimp2-def2-QZVPPD, SCF_ALGORITHM=GDM, xc_grid=000099000590, num_basis=1128, num_pairs=455579, num_threads=8
C  2.6550270000  0.9223870000  -0.0036300000
O  3.8029880000  1.2635680000  -0.0701560000
O  1.6773330000  1.7847370000  0.2390290000
C  2.2984830000  -0.5574630000  -0.1768640000
C  2.9465020000  -1.1485400000  -1.4106420000
H  2.5561430000  -0.6769330000  -2.3139730000
H  2.7511310000  -2.2200870000  -1.4583790000
H  4.0209860000  -0.9798530000  -1.3672800000
O  0.8736430000  -0.7170840000  -0.2892910000
C  0.1871400000  -1.1698660000  0.7748480000
O  0.6896120000  -1.5827160000  1.7808570000
C  -1.2996220000  -1.0828120000  0.5330880000
C  -1.6874240000  0.1906860000  -0.2238990000
H  -1.7845580000  -1.1269680000  1.5099480000
H  -1.6168520000  -1.9613480000  -0.0315720000
N  -1.0967140000  1.3547960000  0.4184620000
C  -3.1993130000  0.2859620000  -0.3457300000
H  -1.2863650000  0.1213700000  -1.2373600000
O  -3.8706900000  1.1711740000  0.1050250000
O  -3.7071890000  -0.7503550000  -1.0322860000
H  -4.6673250000  -0.6367770000  -1.0812800000
H  0.7600990000  1.4164450000  0.2675480000
H  -1.3767630000  2.2048930000  -0.0611490000
H  -1.4416470000  1.4494540000  1.3699790000
H  2.6318160000  -1.0704770000  0.7258380000