16
charge=0, multiplicity=2, basis=def2-QZVPP, AUX_BASIS_CORR=rimp2-def2-QZVPPD, SCF_ALGORITHM=GDM, xc_grid=000099000590, mem_total=7500, num_basis=804, num_pairs=267597, num_threads=2
C  0.0000000000  -0.4521300000  0.6957690000
C  0.0000000000  -0.4521300000  -0.6957690000
C  0.0000000000  -1.6309650000  -1.4153960000
C  0.0000000000  -2.8218680000  -0.6969830000
C  0.0000000000  -2.8218680000  0.6969830000
C  0.0000000000  -1.6309650000  1.4153960000
C  0.0000000000  0.9408890000  1.1962500000
C  0.0000000000  0.9408890000  -1.1962500000
H  0.0000000000  -1.6184180000  -2.4977500000
H  0.0000000000  -3.7660840000  -1.2271540000
H  0.0000000000  -3.7660840000  1.2271540000
H  0.0000000000  -1.6184180000  2.4977500000
O  0.0000000000  1.3740440000  -2.3050730000
O  0.0000000000  1.3740440000  2.3050730000
N  0.0000000000  1.7547300000  0.0000000000
O  0.0000000000  3.0087600000  0.0000000000