41
charge=0, multiplicity=1, basis=def2-QZVPP, mem_total=120000, AUX_BASIS_CORR=rimp2-def2-QZVPPD, SCF_ALGORITHM=GDM, xc_grid=000099000590, num_basis=1851, num_pairs=1058209, num_threads=32
C  -1.1865600000  2.1255750000  -0.3560040000
C  0.9358850000  0.7540700000  -0.1304000000
C  -0.0475830000  2.6048970000  -1.2362240000
C  -0.6745650000  2.0180530000  1.0678730000
C  0.4363370000  1.3066240000  1.1925600000
C  1.0635230000  1.8907030000  -1.1280820000
N  2.0212580000  -0.1984910000  -0.0705060000
C  3.3018710000  0.1977340000  0.3686370000
C  1.6006850000  -1.4637160000  -0.4757880000
O  2.2974480000  -2.4601780000  -0.5200700000
C  0.1688610000  -1.3599650000  -0.8353060000
C  -0.2181530000  -0.0992980000  -0.6482140000
C  -1.5006200000  0.6487480000  -0.8345020000
H  -0.1670470000  3.4502620000  -1.9007000000
H  -1.2013800000  2.4758830000  1.8936240000
H  0.9614840000  1.0876080000  2.1111270000
H  1.9840580000  2.0437560000  -1.6723350000
C  -2.7108780000  0.0575480000  -0.1454330000
C  -2.6189310000  -0.6685460000  1.0384190000
C  -3.9710680000  0.2778460000  -0.6960950000
C  -3.7607540000  -1.1563590000  1.6581930000
H  -1.6477180000  -0.8582600000  1.4761170000
C  -5.1146060000  -0.2074760000  -0.0787890000
H  -4.0566700000  0.8340970000  -1.6238290000
C  -5.0121410000  -0.9269560000  1.1036790000
H  -3.6707120000  -1.7222390000  2.5777550000
H  -6.0855420000  -0.0283100000  -0.5248380000
H  -5.9019430000  -1.3116650000  1.5869620000
O  3.4974530000  1.3533450000  0.6951530000
N  4.2286870000  -0.7752760000  0.3879630000
H  3.9456610000  -1.7030420000  0.0929200000
C  5.5800990000  -0.4859630000  0.8191500000
H  6.0425140000  0.2713970000  0.1834780000
H  5.5952050000  -0.1189080000  1.8470210000
H  6.1630980000  -1.4034290000  0.7606190000
C  -0.5928370000  -2.5465890000  -1.3137830000
H  -0.1306240000  -2.9617940000  -2.2121220000
H  -0.5857420000  -3.3372090000  -0.5599010000
H  -1.6277480000  -2.2883620000  -1.5338530000
H  -1.7181990000  0.6982460000  -1.9046100000
H  -2.0789040000  2.7414360000  -0.4396570000