20
charge=-1, multiplicity=1, basis=def2-QZVPP, AUX_BASIS_CORR=rimp2-def2-QZVPPD, SCF_ALGORITHM=GDM, xc_grid=000099000590, mem_total=7500, num_basis=843, num_pairs=258713, num_threads=2
C  -3.2701140000  -0.7403130000  0.9748560000
C  -2.6872810000  -0.0199000000  -0.2413520000
C  -1.4959450000  -0.5307330000  -0.7832300000
O  -3.2505060000  1.0377320000  -0.5944750000
C  -0.0792800000  0.6501630000  0.4085500000
C  1.2401510000  0.3482150000  0.2372670000
C  2.0048740000  -0.5044830000  -0.3910510000
O  3.4013520000  -0.5547950000  -0.3590580000
C  4.0059960000  0.4311330000  0.4356340000
H  -3.2321320000  -0.0672390000  1.8374160000
H  -4.3233100000  -0.9634220000  0.7857800000
H  -2.7426870000  -1.6646380000  1.2203220000
H  -1.1698080000  -0.1484120000  -1.7435720000
H  -1.1823080000  -1.5362340000  -0.5273600000
H  -0.4910370000  1.5484720000  -0.0407040000
H  -0.5382790000  0.4022540000  1.3613140000
H  1.6485100000  -1.3050880000  -1.0399930000
H  5.0843460000  0.2738170000  0.3637780000
H  3.7472040000  1.4375890000  0.0870080000
H  3.6823470000  0.3549240000  1.4802340000