12
charge=0, multiplicity=2, basis=def2-QZVPP, AUX_BASIS_CORR=rimp2-def2-QZVPPD, SCF_ALGORITHM=GDM, xc_grid=000099000590, mem_total=3750, num_basis=522, num_pairs=119044, num_threads=1
C  -0.2111610000  -0.5369030000  -0.0452310000
C  1.0821280000  0.0559760000  0.0014570000
O  1.2873970000  1.2604170000  0.0258230000
N  -1.2782360000  0.2881020000  -0.1097820000
H  -0.3605320000  -1.6055360000  -0.0640860000
C  -2.6398190000  -0.1571660000  0.0670320000
H  -3.3230180000  0.5900620000  -0.3347840000
H  -2.8848080000  -0.3264000000  1.1214040000
H  -2.7966690000  -1.0889640000  -0.4787710000
H  -1.0615660000  1.2731170000  -0.0279240000
O  2.0966200000  -0.8472000000  0.0190040000
H  2.9152170000  -0.3361740000  0.0544630000