30
charge=0, multiplicity=2, basis=def2-QZVPP, AUX_BASIS_CORR=rimp2-def2-QZVPPD, SCF_ALGORITHM=GDM, xc_grid=000099000590, mem_total=30000, num_basis=1264, num_pairs=586886, num_threads=8
C  1.7018240000  -0.3983560000  -1.1837240000
C  1.4537170000  0.2780490000  0.1614110000
S  1.4482850000  2.0970230000  0.1565350000
C  1.9778770000  -1.8514080000  -0.7860030000
C  2.7074830000  -1.7642110000  0.5796770000
C  2.5634970000  -0.2988350000  1.0479630000
H  -0.0159460000  2.2100350000  -0.2741790000
C  -1.4203420000  2.1998300000  -0.5681540000
C  -1.8841960000  0.8672360000  -0.2446020000
C  -1.9347970000  -0.1368830000  -1.2234460000
C  -2.3019050000  -1.4297790000  -0.8955300000
C  -2.6275620000  -1.7525960000  0.4174840000
C  -2.5906340000  -0.7674630000  1.3991380000
C  -2.2241790000  0.5261170000  1.0741260000
H  2.5799820000  0.0548860000  -1.6528950000
H  0.8641190000  -0.2913800000  -1.8735260000
H  0.4869260000  -0.0463240000  0.5540330000
H  2.5584920000  -2.3884170000  -1.5375300000
H  1.0300610000  -2.3836250000  -0.6713970000
H  2.2625040000  -2.4524120000  1.3002940000
H  3.7591510000  -2.0403130000  0.4892480000
H  3.4909910000  0.2514610000  0.8678930000
H  2.3312510000  -0.2046020000  2.1089410000
H  -1.3854540000  2.4760990000  -1.6174330000
H  -1.7052890000  3.0035880000  0.1037780000
H  -1.6779080000  0.1106210000  -2.2470670000
H  -2.3343680000  -2.1919860000  -1.6647300000
H  -2.9119580000  -2.7656500000  0.6740410000
H  -2.8469650000  -1.0133380000  2.4225730000
H  -2.1828620000  1.2887900000  1.8433550000