13
charge=0, multiplicity=2, basis=def2-QZVPP, AUX_BASIS_CORR=rimp2-def2-QZVPPD, SCF_ALGORITHM=GDM, xc_grid=000099000590, mem_total=3750, num_basis=606, num_pairs=164176, num_threads=1
O  2.7401300000  -0.0221790000  -0.0000910000
C  1.4965220000  -0.0085510000  -0.0000490000
C  0.7453960000  1.2301730000  -0.0000200000
C  -0.6174450000  1.2358820000  0.0000260000
C  -1.3236270000  0.0188400000  0.0000440000
C  -0.6418250000  -1.2100650000  0.0000150000
C  0.7242490000  -1.2327320000  -0.0000290000
H  1.2762890000  -2.1639710000  -0.0000530000
H  -1.1853940000  2.1577360000  0.0000500000
H  1.3160830000  2.1501900000  -0.0000340000
H  -1.2096250000  -2.1354300000  0.0000260000
O  -2.6697570000  0.0941580000  0.0000840000
H  -3.0599550000  -0.7856390000  0.0001420000