21
charge=0, multiplicity=2, basis=def2-QZVPP, AUX_BASIS_CORR=rimp2-def2-QZVPPD, SCF_ALGORITHM=GDM, xc_grid=000099000590, mem_total=15000, num_basis=859, num_pairs=316686, num_threads=4
C  -0.0246840000  -0.4336590000  0.3111540000
C  0.9700150000  -1.5361910000  -0.0269170000
C  2.1453710000  -0.6010640000  -0.3333080000
H  0.6591040000  -2.0816450000  -0.9202310000
H  1.1268060000  -2.2607220000  0.7763390000
C  1.3320460000  0.6388350000  -0.6852530000
H  2.8171180000  -0.9333670000  -1.1276690000
H  2.7503760000  -0.4114980000  0.5560400000
S  -1.5848960000  -0.6030640000  -0.5105360000
C  -2.4045870000  0.9577280000  -0.0942380000
H  -3.3070930000  1.0072070000  -0.7017090000
H  -1.7611830000  1.8006060000  -0.3454810000
H  -2.6847540000  1.0017680000  0.9567410000
C  -0.0431440000  0.0236890000  1.7415330000
H  -0.6083040000  -0.6808600000  2.3615850000
H  -0.4879750000  1.0135070000  1.8499400000
H  0.9735390000  0.0801790000  2.1351670000
C  1.6287740000  1.9014050000  -0.2068670000
H  0.8281500000  0.5862490000  -1.6471740000
H  2.2860820000  2.0394960000  0.6442040000
H  1.1437270000  2.7836500000  -0.6057980000