24
charge=0, multiplicity=2, basis=def2-QZVPP, AUX_BASIS_CORR=rimp2-def2-QZVPPD, SCF_ALGORITHM=GDM, xc_grid=000099000590, mem_total=15000, num_basis=1017, num_pairs=376831, num_threads=4
C  2.4964780000  -0.1174870000  0.0000030000
C  1.0820230000  0.0170150000  0.0000000000
C  3.1287000000  -1.4749200000  0.0000460000
C  3.3749200000  1.0955010000  -0.0000200000
C  0.2228470000  -1.1039870000  -0.0000040000
C  0.4494190000  1.2885260000  0.0000050000
H  2.8372020000  -2.0630210000  0.8783930000
H  4.2161750000  -1.4036670000  0.0001070000
H  2.8373030000  -2.0630300000  -0.8783290000
H  3.2010920000  1.7282990000  0.8783150000
H  3.2009120000  1.7283990000  -0.8782430000
H  4.4289740000  0.8185950000  -0.0001420000
C  -1.1564220000  -0.9775780000  -0.0000070000
C  -1.7390050000  0.2868140000  -0.0000040000
C  -0.9177890000  1.4182720000  0.0000040000
H  1.0537220000  2.1858730000  0.0000150000
H  -1.7655500000  -1.8707870000  -0.0000130000
O  -3.0782890000  0.5214920000  -0.0000050000
H  -1.3876250000  2.3939280000  0.0000090000
H  0.6441070000  -2.1004230000  -0.0000090000
C  -3.9509380000  -0.5880980000  -0.0000210000
H  -4.9589940000  -0.1795470000  -0.0000260000
H  -3.8112140000  -1.2054560000  0.8928700000
H  -3.8111980000  -1.2054410000  -0.8929210000