40
charge=-1, multiplicity=1, basis=def2-QZVPP, mem_total=60000, AUX_BASIS_CORR=rimp2-def2-QZVPPD, SCF_ALGORITHM=GDM, xc_grid=000099000590, num_basis=1605, num_pairs=925106, num_threads=16
C  -3.0690690000  -0.2688120000  1.5086980000
C  -2.3892590000  -0.1289140000  0.1409210000
H  -2.3342650000  -0.3810780000  2.3113530000
H  -3.7347520000  -1.1396830000  1.5345840000
H  -3.6654600000  0.6213830000  1.7297860000
C  -3.4665500000  -0.1047150000  -0.9455210000
H  -3.9964970000  -1.0642140000  -1.0036120000
H  -3.0097450000  0.1276860000  -1.9082000000
H  -4.2018990000  0.6786230000  -0.7356400000
C  -1.5734520000  1.1852390000  0.1125500000
C  -0.7903980000  1.4419450000  -1.1670560000
H  -0.9618490000  1.1537590000  1.0388880000
H  -2.2937580000  1.9987960000  0.3123200000
C  0.4635700000  2.3009050000  -0.9893570000
C  1.5473210000  1.6347180000  -0.1442940000
H  0.2117940000  3.2755200000  -0.5441970000
H  0.8938860000  2.5156940000  -1.9757530000
C  1.5883910000  1.9702160000  1.3215390000
H  1.5002860000  3.0521090000  1.4629280000
H  2.5120440000  1.6351290000  1.8029740000
H  0.7454930000  1.5206650000  1.8549450000
C  2.3412990000  0.6938090000  -0.6688620000
C  3.1489500000  -0.3288430000  0.0892270000
C  2.2750240000  -1.3354710000  0.8950780000
H  3.8500380000  0.1385200000  0.7923800000
H  3.7685160000  -0.8865590000  -0.6201690000
C  1.0128380000  -1.7234300000  0.1672060000
H  1.9972850000  -0.8782150000  1.8474620000
H  2.8841780000  -2.2199550000  1.1284640000
C  -0.1753520000  -1.3279380000  0.6195060000
C  1.2109790000  -2.4284200000  -1.1459300000
H  1.9290620000  -3.2489460000  -1.0366590000
H  1.6140980000  -1.7424120000  -1.8974640000
H  0.2826330000  -2.8423580000  -1.5371930000
C  -1.4921220000  -1.3752440000  -0.1004980000
H  -2.0687510000  -2.2629740000  0.1990040000
H  -1.3151890000  -1.4667680000  -1.1722300000
H  -0.4541660000  0.4847830000  -1.5834530000
H  2.2394050000  0.5158550000  -1.7375250000
H  -0.1854060000  -0.8156300000  1.5777710000