55
charge=0, multiplicity=1, basis=def2-QZVPP, mem_total=120000, AUX_BASIS_CORR=rimp2-def2-QZVPPD, SCF_ALGORITHM=GDM, xc_grid=000099000590, num_basis=2325, num_pairs=1512714, num_threads=32
C  -6.2285320000  -0.7816180000  -1.2876700000
C  -5.1973840000  -1.3745600000  -0.3350510000
C  -3.8990660000  -0.5920480000  -0.3199130000
C  -2.7539060000  -1.2226370000  0.4724510000
C  -1.5154410000  -0.2873280000  0.4562840000
C  -0.2849910000  -0.8502080000  -0.2219610000
C  0.9022860000  -0.6644640000  0.3578540000
C  2.2649780000  -0.8953060000  -0.2240730000
C  2.8079150000  0.3479610000  -1.0110020000
C  2.7725390000  1.6804880000  -0.2869480000
C  1.6908250000  2.4482600000  -0.1318950000
C  0.3675050000  2.0225960000  -0.5784030000
C  -0.7512210000  2.0778870000  0.1381950000
C  -1.8664350000  1.1312050000  -0.1568440000
C  -3.2051140000  1.5906110000  0.3755970000
C  -3.1451140000  -1.5707330000  1.9079400000
C  3.2471960000  -1.3865850000  0.8525160000
C  4.6105660000  -1.6991490000  0.2384410000
C  5.1923200000  -0.5107050000  -0.5204710000
C  4.2122320000  0.0303830000  -1.5532150000
C  -0.4582630000  -1.3974900000  -1.6113400000
O  -3.4100030000  2.6462710000  0.9035720000
O  -4.2102930000  0.7046320000  0.2305960000
O  3.3533700000  -0.4879320000  1.9457490000
O  5.5187630000  0.5578450000  0.3860810000
H  -6.4623660000  0.2467140000  -1.0096270000
H  -7.1553310000  -1.3576440000  -1.2690500000
H  -5.8589770000  -0.7780450000  -2.3168260000
H  -5.6018300000  -1.4046340000  0.6786830000
H  -4.9658820000  -2.4059830000  -0.6195860000
H  -3.5735930000  -0.4479800000  -1.3569780000
H  -2.5026970000  -2.1524080000  -0.0432100000
H  2.2141390000  -1.7011410000  -0.9645040000
H  2.1524800000  0.4385720000  -1.8820790000
H  3.7115300000  2.0251670000  0.1289860000
H  1.7723970000  3.3684630000  0.4385020000
H  -3.4938740000  -0.6864830000  2.4462400000
H  -2.2799560000  -1.9697400000  2.4408430000
H  -3.9342340000  -2.3228170000  1.9457360000
H  2.8353750000  -2.3032500000  1.2820140000
H  4.5077880000  -2.5400650000  -0.4548730000
H  5.2981500000  -2.0173170000  1.0276860000
H  6.1068390000  -0.8167380000  -1.0401980000
H  4.1225360000  -0.7302040000  -2.3353860000
H  4.6425990000  0.9185120000  -2.0208110000
H  -1.1660010000  -2.2296000000  -1.6368340000
H  0.4793220000  -1.7545240000  -2.0335920000
H  -0.8509450000  -0.6332360000  -2.2911950000
H  3.9061250000  0.2536810000  1.6707360000
H  6.2512870000  0.2792980000  0.9431220000
H  -1.2410540000  -0.0847470000  1.4933150000
H  -1.9787830000  1.0126000000  -1.2392480000
H  0.3470870000  1.4417910000  -1.4958550000
H  -0.7947380000  2.6132000000  1.0810940000
H  0.9205330000  -0.2073130000  1.3419600000