9
charge=0, multiplicity=1, basis=def2-QZVPP, AUX_BASIS_CORR=rimp2-def2-QZVPPD, SCF_ALGORITHM=GDM, xc_grid=000099000590, mem_total=3750, num_basis=405, num_pairs=80576, num_threads=1
C  0.0000000000  1.0903680000  0.3458440000
O  0.0000000000  0.0000000000  1.1519150000
C  0.0000000000  0.7164530000  -0.9530110000
C  0.0000000000  -0.7164530000  -0.9530110000
C  0.0000000000  -1.0903680000  0.3458440000
H  0.0000000000  2.0448250000  0.8432410000
H  0.0000000000  1.3725560000  -1.8078980000
H  0.0000000000  -2.0448250000  0.8432410000
H  0.0000000000  -1.3725560000  -1.8078980000