12
charge=0, multiplicity=1, basis=def2-QZVPP, AUX_BASIS_CORR=rimp2-def2-QZVPPD, SCF_ALGORITHM=GDM, xc_grid=000099000590, mem_total=3750, num_basis=549, num_pairs=140072, num_threads=1
N  -1.1341940000  0.2406990000  0.0000000000
C  0.0000000000  1.0596370000  0.0000000000
C  1.2432550000  0.3163850000  0.0000000000
C  1.2579100000  -1.0378060000  0.0000000000
C  0.0508000000  -1.7954060000  0.0000000000
C  -1.1205090000  -1.1205240000  0.0000000000
O  -0.1211800000  2.2721820000  0.0000000000
H  2.1508460000  0.9039970000  0.0000000000
H  2.2072340000  -1.5613890000  0.0000000000
H  0.0610410000  -2.8750140000  0.0000000000
H  -2.0873060000  -1.6059060000  0.0000000000
H  -2.0117550000  0.7422520000  0.0000000000