38
charge=0, multiplicity=2, basis=def2-QZVPP, AUX_BASIS_CORR=rimp2-def2-QZVPPD, SCF_ALGORITHM=GDM, xc_grid=000099000590, mem_total=60000, num_basis=1572, num_pairs=868312, num_threads=16
C  0.6146370000  -1.6453670000  -0.1579160000
C  0.9998340000  -1.0807210000  1.2026070000
C  1.5789900000  0.3268650000  1.0901980000
H  1.7215510000  -1.7760620000  1.6467620000
H  0.1306480000  -1.0855170000  1.8625710000
C  2.5882770000  0.4321490000  -0.0344900000
N  1.1256540000  -1.2572210000  -1.2420470000
C  -0.3958720000  -2.7723640000  -0.1733230000
C  -1.8119100000  -2.3873160000  0.2686020000
H  -0.0258350000  -3.5647090000  0.4871090000
H  -0.4247030000  -3.1777900000  -1.1862070000
H  -2.4195590000  -3.2955740000  0.2355980000
C  -2.4854650000  -1.3176180000  -0.6019160000
H  -1.8122610000  -2.0658080000  1.3137430000
H  -3.5684700000  -1.3973590000  -0.4668280000
H  -2.2897110000  -1.5362620000  -1.6548840000
C  -2.0832090000  0.1092600000  -0.3077310000
C  -1.4883140000  0.9071400000  -1.2800920000
C  -2.3396640000  0.6726220000  0.9414630000
C  -1.1676310000  2.2321800000  -1.0185190000
C  -2.0128720000  1.9935810000  1.2119280000
H  -1.2594540000  0.4793370000  -2.2487860000
C  -1.4274930000  2.7810770000  0.2289980000
H  -2.8132190000  0.0731370000  1.7120220000
H  -2.2230270000  2.4117240000  2.1893060000
H  -1.1750710000  3.8141110000  0.4356140000
H  -0.7086170000  2.8356740000  -1.7926980000
H  2.0333610000  0.6168980000  2.0475720000
H  0.7598410000  1.0245210000  0.9044930000
H  1.9266000000  -0.3401490000  -0.9128780000
C  3.8970590000  -0.2818070000  0.2072460000
C  2.7340020000  1.8072250000  -0.6346600000
H  3.7487270000  -1.3124420000  0.5367650000
H  4.5060370000  -0.3089520000  -0.6991300000
H  4.4816960000  0.2326400000  0.9817520000
H  3.1916830000  2.5000490000  0.0852960000
H  3.3735460000  1.7904540000  -1.5203620000
H  1.7644580000  2.2212050000  -0.9168760000