11
charge=0, multiplicity=1, basis=def2-QZVPP, AUX_BASIS_CORR=rimp2-def2-QZVPPD, SCF_ALGORITHM=GDM, xc_grid=000099000590, mem_total=3750, num_basis=465, num_pairs=99689, num_threads=1
C  -1.0402410000  0.2397010000  0.0000560000
C  -2.1546660000  -0.4317840000  0.0001890000
C  0.0504510000  0.9584780000  -0.0000760000
O  1.3310290000  0.5029230000  -0.0001270000
C  1.4819910000  -0.9042000000  -0.0000430000
H  2.5518850000  -1.0991250000  -0.0001340000
H  1.0225200000  -1.3439360000  0.8902410000
H  1.0223470000  -1.3440600000  -0.8901770000
H  -2.6422960000  -0.7250680000  0.9253620000
H  -2.6424250000  -0.7252220000  -0.9248680000
H  0.0145290000  2.0408640000  -0.0001620000