16
charge=-1, multiplicity=1, basis=def2-QZVPP, AUX_BASIS_CORR=rimp2-def2-QZVPPD, SCF_ALGORITHM=GDM, xc_grid=000099000590, mem_total=7500, num_basis=723, num_pairs=224683, num_threads=2
O  -0.5515080000  -1.1170240000  1.1614010000
C  -0.5531350000  -0.6492370000  0.0371600000
C  -1.7070230000  0.1510720000  -0.5596680000
O  -2.9445080000  -0.1900150000  0.0920510000
O  -1.2761440000  1.3930980000  -0.3841100000
C  0.7277150000  -0.6491040000  -0.7882710000
H  -1.9016340000  -0.1544970000  -1.6144070000
C  1.9249820000  -0.0003570000  -0.1198640000
H  0.5554700000  -0.0981720000  -1.7174160000
H  1.0002520000  -1.6781540000  -1.0342770000
O  3.0493790000  -0.4039010000  -0.3388850000
H  -2.8053520000  0.0581750000  1.0129460000
C  1.6496660000  1.1703280000  0.7757790000
H  2.5575700000  1.7576430000  0.9103720000
H  0.8029940000  1.7463030000  0.3870720000
H  1.3197210000  0.7752290000  1.7412320000