10
charge=0, multiplicity=1, basis=def2-QZVPP, AUX_BASIS_CORR=rimp2-def2-QZVPPD, SCF_ALGORITHM=GDM, xc_grid=000099000590, mem_total=3750, num_basis=462, num_pairs=103617, num_threads=1
C  0.0000000000  1.2634510000  0.0000000000
C  -1.2826660000  0.6966980000  0.0000000000
C  -1.1966210000  -0.6796900000  0.0000000000
C  -0.1682400000  -1.3658590000  0.0000000000
C  1.1357200000  -0.9169300000  0.0000000000
C  1.1666460000  0.4850270000  0.0000000000
H  0.0921360000  2.3437560000  0.0000000000
H  -2.1835630000  1.2945310000  0.0000000000
H  2.1288060000  0.9848230000  0.0000000000
H  2.0335910000  -1.5192980000  0.0000000000