26
charge=0, multiplicity=2, basis=def2-QZVPP, AUX_BASIS_CORR=rimp2-def2-QZVPPD, SCF_ALGORITHM=GDM, xc_grid=000099000590, mem_total=30000, num_basis=1104, num_pairs=465688, num_threads=8
C  -2.4684560000  0.4216160000  -0.0849730000
C  -1.6609710000  -0.5069630000  -0.9765130000
C  -1.1393300000  -1.7800700000  -0.3198940000
H  -0.8304920000  0.0761000000  -1.3857450000
H  -2.3016130000  -0.7611500000  -1.8274870000
C  -0.1662470000  -1.5412750000  0.8454110000
H  -0.6360760000  -2.3678120000  -1.0932050000
H  -1.9777960000  -2.3817210000  0.0391520000
C  0.9712470000  -0.6220090000  0.4822240000
N  -2.8597380000  0.0949770000  1.0508260000
C  -2.7858140000  1.7895340000  -0.6502780000
H  -1.8549380000  2.3380900000  -0.8107710000
H  -3.4237740000  2.3530700000  0.0277400000
H  -3.2865870000  1.6854910000  -1.6153450000
C  2.0082280000  -1.0600240000  -0.3397820000
C  0.9888350000  0.6991560000  0.9217890000
C  2.0103400000  1.5625680000  0.5466600000
C  3.0307900000  -0.2020990000  -0.7171030000
C  3.0338680000  1.1153120000  -0.2763220000
H  2.0081160000  2.5861980000  0.9025520000
H  0.1916780000  1.0518220000  1.5670180000
H  2.0161950000  -2.0887950000  -0.6848440000
H  3.8328950000  1.7860840000  -0.5681010000
H  3.8307110000  -0.5629930000  -1.3529130000
H  -0.7147040000  -1.1254640000  1.6914080000
H  0.2296090000  -2.5082410000  1.1674460000