47
charge=0, multiplicity=1, basis=def2-QZVPP, mem_total=120000, AUX_BASIS_CORR=rimp2-def2-QZVPPD, SCF_ALGORITHM=GDM, xc_grid=000099000590, num_basis=1977, num_pairs=1133631, num_threads=32
C  2.3658880000  1.5674250000  -0.1568080000
C  0.9496100000  1.6721200000  0.3218170000
C  0.5636250000  -1.5119150000  0.6577560000
C  3.0539450000  0.3097650000  0.3693640000
H  2.3831240000  1.5804300000  -1.2580900000
C  2.8001910000  -0.9830460000  -0.3991250000
H  4.1289260000  0.4936210000  0.3524930000
H  2.7833520000  0.1630640000  1.4182550000
C  1.3357450000  -1.3686920000  -0.6154280000
H  3.2638560000  -0.8937990000  -1.3926900000
C  -0.1202120000  1.8546700000  -0.4472770000
C  -1.4780960000  1.8178470000  0.0697760000
C  -0.7622430000  -1.5754600000  0.8220040000
C  -2.5761040000  1.9740110000  -0.6655510000
H  0.8539200000  -0.6475840000  -1.2747540000
H  1.2921310000  -2.3086020000  -1.1731060000
C  -3.9712300000  1.8363390000  -0.1269320000
H  -4.6059390000  1.3658270000  -0.8900370000
H  -4.4032570000  2.8228760000  0.0651710000
C  -1.6517970000  -1.5631250000  -0.3603040000
C  -3.8873460000  -1.5467600000  -1.1024020000
H  -3.8103630000  -2.5261620000  -1.5733130000
H  -3.6827520000  -0.7784990000  -1.8470750000
H  -4.8724950000  -1.4101220000  -0.6633270000
O  -2.9606560000  -1.4484210000  -0.0149380000
O  3.1500790000  2.6554830000  0.3229220000
O  3.4972850000  -1.9809140000  0.3368930000
O  -1.3142220000  -1.6670670000  -1.5126240000
O  -4.0448840000  1.1306400000  1.0941960000
H  -3.6673310000  0.2524920000  0.9533380000
C  2.7932850000  3.9065170000  -0.2192730000
H  3.4938370000  4.6363240000  0.1836910000
H  2.8750680000  3.8987240000  -1.3143550000
H  1.7734740000  4.1964020000  0.0531870000
C  3.7723160000  -3.1643440000  -0.3742300000
H  4.3006260000  -2.9488410000  -1.3117000000
H  4.4134580000  -3.7745580000  0.2604750000
H  2.8652630000  -3.7340840000  -0.6047160000
C  -1.3939320000  -1.6631600000  2.1844420000
H  -1.9971850000  -0.7787590000  2.4035060000
H  -2.0558530000  -2.5272620000  2.2665630000
H  -0.6230190000  -1.7437820000  2.9507850000
H  0.0012310000  1.9757900000  -1.5219310000
H  0.8176500000  1.5541660000  1.3953190000
H  -1.5871160000  1.6087660000  1.1301550000
H  -2.4898570000  2.1973700000  -1.7267510000
H  1.1665570000  -1.5647200000  1.5603260000