6
charge=0, multiplicity=1, basis=def2-QZVPP, AUX_BASIS_CORR=rimp2-def2-QZVPPD, SCF_ALGORITHM=GDM, xc_grid=000099000590, mem_total=3750, num_basis=247, num_pairs=30868, num_threads=1
C  1.1552220000  0.0199200000  0.0000420000
S  -0.6622500000  -0.0869640000  -0.0000390000
H  1.5228380000  -1.0048380000  -0.0001370000
H  1.5238780000  0.5211250000  0.8928760000
H  1.5239380000  0.5214590000  -0.8925790000
H  -0.9059920000  1.2341610000  0.0002040000