22
charge=0, multiplicity=1, basis=def2-QZVPP, mem_total=15000, AUX_BASIS_CORR=rimp2-def2-QZVPPD, SCF_ALGORITHM=GDM, xc_grid=000099000590, num_basis=1038, num_pairs=384787, num_threads=4
C  1.4515930000  1.1258650000  -0.0696170000
C  1.2601530000  -0.2616830000  -0.1406600000
C  0.0020830000  -0.8100110000  -0.3419720000
C  -1.1130220000  0.0114220000  -0.4735660000
C  -0.9379780000  1.3943090000  -0.4168130000
C  0.3278770000  1.9276460000  -0.2152370000
H  -0.1104200000  -1.8839380000  -0.4019320000
H  0.4473510000  3.0044360000  -0.1797330000
N  -2.3710800000  -0.5702750000  -0.7057460000
C  -3.3014390000  -0.4088950000  0.1376480000
O  -4.5149780000  -0.9199790000  -0.0523650000
N  2.3318730000  -1.1450670000  -0.0123120000
C  3.5132630000  -1.2231600000  0.1477130000
O  4.6529660000  -1.4178140000  0.2999490000
H  -4.4901690000  -1.3814620000  -0.9000180000
O  -3.2669490000  0.2339890000  1.3048680000
H  -2.3826480000  0.6060410000  1.4294370000
C  2.8148560000  1.7150560000  0.1434440000
H  3.2567520000  1.3809930000  1.0862430000
H  3.5052170000  1.4352650000  -0.6570620000
H  2.7635560000  2.8029870000  0.1696630000
H  -1.7878180000  2.0502080000  -0.5654480000