38
charge=0, multiplicity=2, basis=def2-QZVPP, AUX_BASIS_CORR=rimp2-def2-QZVPPD, SCF_ALGORITHM=GDM, xc_grid=000099000590, mem_total=60000, num_basis=1572, num_pairs=855170, num_threads=16
C  2.6535970000  -0.8901700000  0.1325820000
C  2.7888400000  0.1657260000  -0.9416150000
C  2.5599820000  1.6019320000  -0.4132690000
H  2.0824380000  -0.0333690000  -1.7517850000
H  3.7925580000  0.1017490000  -1.3698560000
C  1.1451820000  1.9320010000  -0.0601500000
N  3.6394810000  -1.4780560000  0.6766690000
C  1.2643450000  -1.2518710000  0.5860250000
C  0.5126490000  -2.1070690000  -0.4363240000
H  0.6997630000  -0.3350020000  0.7726860000
H  1.3535570000  -1.7994230000  1.5261930000
H  0.4639450000  -1.5919940000  -1.4006830000
C  -0.9142520000  -2.4515050000  0.0117440000
H  1.0688800000  -3.0342980000  -0.5997090000
H  -0.8752680000  -2.9245290000  0.9970650000
H  -1.3296020000  -3.1928840000  -0.6757490000
C  -1.8314720000  -1.2562210000  0.0592800000
C  -2.0407210000  -0.5485160000  1.2403350000
C  -2.4750490000  -0.8161160000  -1.0959230000
C  -2.8652900000  0.5684410000  1.2677510000
C  -3.3035030000  0.2962530000  -1.0740980000
H  -1.5548970000  -0.8794570000  2.1516120000
C  -3.5006620000  0.9946740000  0.1099520000
H  -2.3294170000  -1.3586380000  -2.0242380000
H  -3.7985100000  0.6179480000  -1.9827600000
H  -4.1480250000  1.8629630000  0.1302030000
H  -3.0163320000  1.1031300000  2.1981780000
H  2.9119760000  2.2877170000  -1.1984450000
H  3.2125150000  1.7631310000  0.4493530000
C  0.1390540000  2.0720160000  -1.1501470000
C  0.8159470000  2.4702270000  1.2892820000
H  0.3840020000  1.4594800000  -2.0211220000
H  0.0750570000  3.1140550000  -1.5036420000
H  -0.8619130000  1.7915390000  -0.8149580000
H  1.4379690000  2.0209700000  2.0680620000
H  -0.2329630000  2.2934280000  1.5422540000
H  0.9747840000  3.5595320000  1.3457140000
H  4.5212370000  -1.1584630000  0.2724000000