13
charge=0, multiplicity=2, basis=def2-QZVPP, AUX_BASIS_CORR=rimp2-def2-QZVPPD, SCF_ALGORITHM=GDM, xc_grid=000099000590, mem_total=3750, num_basis=552, num_pairs=131033, num_threads=1
C  1.2085890000  -0.6656740000  0.0000030000
C  2.5225570000  0.0094740000  0.0000000000
C  -0.0242610000  0.0876780000  -0.0000020000
O  -0.1051050000  1.2984800000  -0.0000140000
O  -1.1086560000  -0.7182240000  0.0000070000
C  -2.3710680000  -0.0527990000  0.0000030000
H  3.1122180000  -0.2824350000  0.8764380000
H  2.4016930000  1.0918240000  -0.0000550000
H  3.1122640000  -0.2825270000  -0.8763750000
H  -3.1194050000  -0.8410490000  0.0000100000
H  -2.4741140000  0.5730720000  -0.8868960000
H  -2.4741120000  0.5730870000  0.8868900000
H  1.1366350000  -1.7461020000  0.0000150000