20
charge=0, multiplicity=2, basis=def2-QZVPP, AUX_BASIS_CORR=rimp2-def2-QZVPPD, SCF_ALGORITHM=GDM, xc_grid=000099000590, mem_total=15000, num_basis=883, num_pairs=309941, num_threads=4
C  -2.4776330000  0.0000000000  -0.0000030000
C  -3.2367330000  1.2904970000  -0.0000150000
C  -1.0572580000  -0.0000020000  -0.0000030000
C  -3.2367390000  -1.2904950000  0.0000200000
H  -3.0017140000  1.9024670000  -0.8783680000
H  -3.0018980000  1.9023720000  0.8784570000
H  -4.3119930000  1.1153400000  -0.0001350000
C  -0.3122360000  1.2053530000  0.0000210000
C  -0.3122350000  -1.2053560000  -0.0000240000
H  -3.0017540000  -1.9024400000  0.8784000000
H  -3.0018770000  -1.9023970000  -0.8784250000
H  -4.3119980000  -1.1153320000  0.0000980000
C  1.0670040000  -1.2069650000  -0.0000240000
C  1.7553280000  0.0000000000  -0.0000010000
C  1.0670030000  1.2069640000  0.0000230000
H  -0.8286250000  2.1555960000  0.0000430000
H  1.6160660000  2.1394890000  0.0000430000
H  -0.8286220000  -2.1555990000  -0.0000450000
H  1.6160680000  -2.1394900000  -0.0000430000
Cl  3.5010200000  0.0000010000  0.0000000000