27
charge=0, multiplicity=2, basis=def2-QZVPP, AUX_BASIS_CORR=rimp2-def2-QZVPPD, SCF_ALGORITHM=GDM, xc_grid=000099000590, mem_total=30000, num_basis=1134, num_pairs=491120, num_threads=8
C  -0.1083930000  0.8886030000  1.0158330000
C  -1.4306520000  1.3763990000  0.4673260000
O  -1.9545330000  0.2429090000  -0.2413220000
C  -1.5446740000  -0.9521070000  0.4028460000
C  -0.2773780000  -0.5779690000  1.1700640000
H  0.3480460000  1.4191330000  1.8470450000
C  -1.3810350000  2.5620420000  -0.4674220000
H  -2.1039160000  1.5979300000  1.3103350000
H  -2.3780460000  2.7676270000  -0.8585510000
H  -0.7026320000  2.3620260000  -1.2968440000
H  -1.0278750000  3.4473790000  0.0648910000
C  -1.3152000000  -2.0236920000  -0.6443190000
H  -2.2994060000  -1.2905100000  1.1274250000
O  -0.3723850000  -1.6005400000  -1.6048860000
H  -2.2710740000  -2.2817840000  -1.1132830000
H  -0.9098360000  -2.9127030000  -0.1600550000
H  -0.6677910000  -0.7489730000  -1.9469230000
O  0.4217250000  -1.3485620000  1.7761950000
C  3.3655750000  0.0411810000  0.3781980000
C  2.4342760000  0.0248190000  -0.8183080000
H  2.8070630000  -0.1230910000  1.3020600000
H  3.8925750000  0.9947490000  0.4450240000
H  4.1034140000  -0.7600860000  0.2929850000
H  3.0017460000  0.1273400000  -1.7545290000
H  1.8813500000  -0.9172770000  -0.8991260000
H  0.7365970000  1.0165340000  0.0770730000
O  1.5470270000  1.1144490000  -0.8628410000