35
charge=0, multiplicity=1, basis=def2-QZVPP, mem_total=60000, AUX_BASIS_CORR=rimp2-def2-QZVPPD, SCF_ALGORITHM=GDM, xc_grid=000099000590, num_basis=1482, num_pairs=767251, num_threads=16
C  0.2134020000  1.5015050000  1.0817040000
N  -0.3226570000  0.1622280000  0.8863040000
C  0.4947680000  -1.0060400000  1.1735790000
C  1.0061560000  -1.7452940000  -0.0967020000
C  2.4464950000  -2.1933010000  -0.0992150000
C  2.8577560000  0.8440850000  -0.0564210000
C  2.3131230000  2.2106390000  -0.3007500000
C  0.7745180000  2.1995350000  -0.1831390000
C  3.4658500000  -1.4573450000  -0.5484990000
C  3.2821250000  -0.0476320000  -0.9442450000
C  -1.5886800000  0.0073670000  0.3473020000
C  -2.1831870000  -1.2612420000  0.2270950000
C  -3.4619900000  -1.4070680000  -0.2828730000
C  -4.1994520000  -0.3087960000  -0.7017500000
C  -3.6203010000  0.9471970000  -0.6007330000
C  -2.3412730000  1.1106830000  -0.0937760000
H  -0.5779480000  2.1185870000  1.5129860000
H  0.9834500000  1.4396520000  1.8520960000
H  1.3383680000  -0.6723010000  1.7712380000
H  -0.0661730000  -1.6962150000  1.8114110000
H  0.8508450000  -1.0685660000  -0.9370420000
H  0.3779830000  -2.6180130000  -0.2856030000
H  2.7231390000  2.9127290000  0.4331600000
H  2.5965040000  2.5758870000  -1.2910390000
H  0.4190140000  3.2340380000  -0.2123760000
H  0.3561000000  1.7006770000  -1.0596550000
H  -1.6487570000  -2.1461430000  0.5383930000
H  -3.8856030000  -2.4024290000  -0.3530190000
H  -5.1970710000  -0.4300670000  -1.1035610000
H  -4.1671870000  1.8238180000  -0.9287080000
H  -1.9279440000  2.1075760000  -0.0548070000
H  3.4281760000  0.2309020000  -1.9866170000
H  2.7979790000  0.5049290000  0.9718250000
H  4.4532550000  -1.9036820000  -0.6303670000
H  2.6486090000  -3.2127300000  0.2181050000