41
charge=0, multiplicity=2, basis=def2-QZVPP, mem_total=60000, AUX_BASIS_CORR=rimp2-def2-QZVPPD, SCF_ALGORITHM=GDM, xc_grid=000099000590, num_basis=1797, num_pairs=1022717, num_threads=16
C  2.0630960000  2.3784130000  -0.1712360000
C  1.1664130000  2.5193060000  -1.3750040000
H  0.5807400000  3.4447970000  -1.3238210000
H  0.4731140000  1.6819160000  -1.4524720000
H  1.7523480000  2.5546800000  -2.2980990000
C  3.1630480000  3.4030550000  -0.0445290000
H  2.6715430000  1.2306010000  -0.3064040000
H  1.5108660000  2.2319110000  0.7563850000
H  2.7513740000  4.4118860000  0.0754100000
H  3.7944860000  3.4163780000  -0.9379650000
H  3.8019360000  3.2032910000  0.8185760000
O  1.3832670000  -0.9317710000  -1.2273110000
C  2.6141190000  -1.1265400000  -0.5040760000
C  2.1755820000  -1.6003560000  0.8777700000
C  0.9789200000  -2.5075060000  0.5230940000
C  0.4508310000  -1.9044360000  -0.8228320000
C  3.4500480000  0.1092660000  -0.5712670000
H  3.1508590000  -1.9654630000  -0.9792110000
H  3.8304340000  0.3275920000  -1.5670370000
H  4.2231010000  0.1556210000  0.1921110000
O  1.8012610000  -0.5876100000  1.7723060000
H  2.9705800000  -2.1648430000  1.3658130000
H  1.0554420000  -0.0593340000  1.4041290000
O  0.0239310000  -2.6003930000  1.5349850000
H  1.3382300000  -3.5165420000  0.3077130000
H  0.1862320000  -1.8660570000  2.1448160000
N  -0.8587150000  -1.3026590000  -0.7580340000
H  0.3721850000  -2.6915010000  -1.5798390000
C  -1.9438540000  -1.6558500000  -1.5315850000
N  -2.9985420000  -0.9269580000  -1.3232900000
C  -2.5979210000  -0.0272430000  -0.3575110000
C  -1.2783850000  -0.2431920000  0.0074570000
N  -0.6030640000  0.4672600000  0.9167840000
C  -1.3350230000  1.4340380000  1.4585110000
N  -2.6007820000  1.7481440000  1.1955890000
C  -3.2641180000  1.0275290000  0.2840280000
N  -4.5432760000  1.3364920000  0.0107300000
H  -4.9799550000  2.0957920000  0.5046860000
H  -5.0592530000  0.7990360000  -0.6647080000
H  -0.8415510000  2.0452500000  2.2068940000
H  -1.8762680000  -2.4716880000  -2.2361810000