41
charge=1, multiplicity=1, basis=def2-QZVPP, AUX_BASIS_CORR=rimp2-def2-QZVPPD, SCF_ALGORITHM=GDM, xc_grid=000099000590, mem_total=60000, num_basis=1716, num_pairs=993603, num_threads=16
C  2.2314580000  -2.6439980000  0.5331350000
C  0.8738850000  -1.9165920000  0.5414820000
C  1.9464610000  -0.8976010000  -1.1035500000
C  2.9775360000  -1.9444400000  -0.6425960000
H  2.7526420000  -2.5418990000  1.4861350000
H  2.0935840000  -3.7098580000  0.3501980000
H  3.9151280000  -1.4803570000  -0.3410430000
H  3.1905240000  -2.6385830000  -1.4558930000
C  0.6317120000  -1.6669060000  -0.9473380000
H  -0.2601350000  -1.0854060000  -1.1541920000
H  0.6208050000  -2.5881220000  -1.5273190000
H  0.0731940000  -2.3846520000  1.1081910000
H  2.1528610000  -0.3970960000  -2.0459550000
N  1.8468260000  0.0723380000  -0.0001210000
N  1.0726960000  -0.5229670000  1.0129740000
C  -0.7810900000  1.5798180000  0.3631980000
C  -1.8256740000  0.6022660000  0.1866270000
C  -2.3147910000  0.2614830000  -1.0831790000
C  -2.4334590000  0.0332480000  1.3166600000
C  -3.3539200000  -0.6423100000  -1.2163010000
H  -1.9049890000  0.7324730000  -1.9677210000
C  -3.4639350000  -0.8750710000  1.1810650000
H  -2.0761940000  0.3054430000  2.3030940000
C  -3.9240050000  -1.2177420000  -0.0875160000
H  -3.7331380000  -0.8874610000  -2.2002060000
H  -3.9215320000  -1.3114210000  2.0598180000
H  -4.7409270000  -1.9206750000  -0.1938270000
H  -0.7525880000  2.0547980000  1.3409720000
C  1.8505570000  1.4169570000  -0.0749580000
H  2.3831940000  1.7664150000  -0.9558940000
C  0.0932900000  2.0707400000  -0.6026580000
H  0.0052590000  1.6068530000  -1.5831420000
H  1.5666870000  -0.4885870000  1.9014990000
C  2.1962650000  2.1450770000  1.2011740000
H  3.2087160000  1.8574540000  1.4944690000
H  2.1873700000  3.2221970000  1.0650350000
H  1.5192950000  1.8879610000  2.0147070000
C  0.3263150000  3.5731310000  -0.6763010000
H  1.2813360000  3.8233660000  -1.1416070000
H  -0.4609860000  4.0193480000  -1.2863630000
H  0.2796000000  4.0438540000  0.3054110000