27
charge=-1, multiplicity=1, basis=def2-QZVPP, mem_total=30000, AUX_BASIS_CORR=rimp2-def2-QZVPPD, SCF_ALGORITHM=GDM, xc_grid=000099000590, num_basis=1134, num_pairs=512094, num_threads=8
C  0.3995310000  0.6784560000  -0.5153700000
C  -0.9112800000  1.2259410000  -0.9270310000
H  -0.9251460000  1.8425650000  -1.8306170000
C  0.2777340000  -0.5912800000  -0.1320050000
C  -1.7908860000  1.7336140000  0.1916620000
H  -2.7582200000  2.0287170000  -0.2372990000
C  -1.1285180000  -1.0612920000  -0.4506060000
C  -2.0271610000  0.6271620000  1.2364300000
H  -1.1523630000  0.5648570000  1.8926100000
C  -2.2242360000  -0.7234410000  0.5553120000
H  -2.2590000000  -1.5274820000  1.3073960000
H  -3.1677160000  -0.7609530000  0.0035540000
H  -1.4261310000  2.6304210000  0.7432620000
H  -2.8813550000  0.8679750000  1.8817140000
O  -1.3184840000  -1.9587450000  -1.2820060000
C  1.7237830000  1.4018440000  -0.4602170000
H  1.6887340000  2.1713430000  0.3242050000
H  1.8787390000  1.9433380000  -1.4009210000
C  1.3329050000  -1.4290760000  0.5278970000
H  0.9354310000  -1.9334290000  1.4185160000
H  1.6457960000  -2.2332120000  -0.1522010000
C  2.5334030000  -0.5576970000  0.9124060000
H  2.2865900000  0.0109330000  1.8172560000
H  3.4009350000  -1.1822610000  1.1550370000
C  2.8813890000  0.4302680000  -0.2031040000
H  3.8003140000  0.9754120000  0.0421940000
H  3.0812850000  -0.1352630000  -1.1209120000