13
charge=0, multiplicity=1, basis=def2-QZVPP, AUX_BASIS_CORR=rimp2-def2-QZVPPD, SCF_ALGORITHM=GDM, xc_grid=000099000590, mem_total=3750, num_basis=579, num_pairs=141032, num_threads=1
C  -1.8536820000  0.1334940000  0.0000290000
C  -0.8608920000  0.9798610000  0.0001190000
C  -2.8474160000  -0.6954200000  -0.0000900000
C  0.5638200000  0.5851860000  0.0000720000
O  1.4707090000  1.3776300000  0.0001620000
O  0.7404230000  -0.7421910000  -0.0000870000
C  2.0991230000  -1.1861130000  -0.0001450000
H  2.6181560000  -0.8247070000  0.8874940000
H  2.0512470000  -2.2716980000  -0.0002900000
H  2.6181580000  -0.8244700000  -0.8876870000
H  -1.0378290000  2.0487480000  0.0002540000
H  -3.2722660000  -1.0568390000  0.9294040000
H  -3.2722490000  -1.0565970000  -0.9296860000