52
charge=0, multiplicity=2, basis=def2-QZVPP, mem_total=120000, AUX_BASIS_CORR=rimp2-def2-QZVPPD, SCF_ALGORITHM=GDM, xc_grid=000099000590, num_basis=2356, num_pairs=1529103, num_threads=32
H  -2.1134260000  0.4222010000  -2.4452050000
C  -2.4440680000  -0.4370780000  -1.8783930000
C  -3.3119650000  -2.6081270000  -0.4255780000
C  -2.8141600000  -0.2627670000  -0.5404990000
C  -2.5133200000  -1.6801730000  -2.4834320000
C  -2.9543160000  -2.7742250000  -1.7566640000
C  -3.2446110000  -1.3752850000  0.2110700000
H  -2.2263890000  -1.7890300000  -3.5222090000
H  -3.0158940000  -3.7524860000  -2.2176090000
H  -3.6404210000  -3.4665420000  0.1491270000
C  -3.5650010000  -1.3246980000  1.6880760000
H  -4.2710040000  -0.5274960000  1.9123410000
H  -4.0331360000  -2.2760390000  1.9653210000
C  -2.6234110000  1.0640640000  0.0246110000
O  -2.4246230000  2.0960930000  -0.8518400000
C  -2.8434090000  3.3160290000  -0.2275650000
C  -3.1824150000  2.8878020000  1.1998240000
O  -3.3799350000  1.4793030000  1.0683190000
H  -2.0294010000  4.0384420000  -0.2766890000
H  -3.7091060000  3.6959370000  -0.7714960000
H  -4.1026840000  3.3212260000  1.5837370000
H  -2.3657440000  3.0752290000  1.8991470000
O  -2.4232070000  -1.0865820000  2.4912860000
H  -1.6618070000  -1.5569760000  2.1139730000
C  -0.5553030000  0.9262880000  0.9008500000
H  -0.4874230000  2.0063050000  0.8846180000
H  -0.9374940000  0.4571830000  1.7969270000
C  0.2265100000  0.2285640000  0.0251980000
C  0.8842950000  0.9136900000  -1.1251510000
H  1.1816130000  0.2331410000  -1.9182020000
H  0.2571490000  1.7056780000  -1.5393210000
S  2.3933860000  1.8036110000  -0.6463380000
C  3.3975010000  0.5380140000  0.1093500000
C  4.8241740000  -1.5265850000  1.2328260000
C  4.2671430000  -0.1910330000  -0.6870490000
C  3.2383380000  0.2664190000  1.4599400000
C  3.9570340000  -0.7796650000  2.0197490000
C  4.9849040000  -1.2301890000  -0.1151770000
H  4.3768310000  0.0641070000  -1.7332420000
H  2.5651600000  0.8699410000  2.0536940000
H  3.8410980000  -1.0092580000  3.0715190000
H  5.6735940000  -1.8065370000  -0.7204940000
H  5.3843350000  -2.3417680000  1.6750300000
O  3.0500650000  2.2461190000  -1.8731980000
O  2.0268860000  2.7717230000  0.3863900000
C  0.3837640000  -1.2127430000  0.1996370000
O  -0.1254100000  -1.8831530000  1.0794900000
O  1.1893670000  -1.7648510000  -0.7231360000
C  1.4271170000  -3.1657980000  -0.5885960000
H  0.4909490000  -3.7184550000  -0.6645050000
H  1.8948400000  -3.3788400000  0.3722740000
H  2.0962430000  -3.4279680000  -1.4039710000