16
charge=0, multiplicity=2, basis=def2-QZVPP, AUX_BASIS_CORR=rimp2-def2-QZVPPD, SCF_ALGORITHM=GDM, xc_grid=000099000590, mem_total=7500, num_basis=736, num_pairs=235836, num_threads=2
N  -0.6418810000  -1.0936250000  -0.2989240000
H  0.0132570000  -1.5123890000  -0.9468180000
C  -0.1073850000  -0.1132450000  0.6306700000
H  -0.7438760000  -0.1314390000  1.5186750000
C  1.3210590000  -0.4582060000  1.0222700000
C  -0.1587900000  1.3000740000  0.0219280000
H  1.7024860000  0.2858410000  1.7197060000
H  1.3338130000  -1.4306750000  1.5246950000
S  2.4445890000  -0.6050240000  -0.3787030000
O  0.8536870000  1.8690010000  -0.3383110000
N  -1.3976430000  1.8227220000  -0.0664200000
H  -2.2083990000  1.2571430000  0.1558330000
H  -1.5090330000  2.7123020000  -0.5266480000
C  -1.9623140000  -1.3237710000  -0.4287630000
H  -2.1979080000  -2.1100940000  -1.1615590000
O  -2.8265010000  -0.7343870000  0.1953280000