49
charge=0, multiplicity=2, basis=def2-QZVPP, mem_total=120000, AUX_BASIS_CORR=rimp2-def2-QZVPPD, SCF_ALGORITHM=GDM, xc_grid=000099000590, num_basis=2010, num_pairs=1046070, num_threads=32
C  -2.5454770000  0.0782860000  -0.0171180000
C  -3.7116860000  0.9865870000  -0.3472080000
C  -4.9900900000  0.7632130000  0.4553730000
H  -3.9086930000  0.8910360000  -1.4209980000
H  -3.3804140000  2.0210270000  -0.2136010000
C  -5.6740720000  -0.5581330000  0.2765350000
H  -5.6954690000  1.5679190000  0.1836290000
H  -4.7788740000  0.9190530000  1.5193600000
C  -5.7399820000  -1.1818490000  -1.0767000000
C  -6.7149800000  -0.9268600000  1.2785340000
N  -2.5962040000  -0.9632800000  0.7005460000
C  -1.2178590000  0.5107630000  -0.6040730000
H  -1.4231590000  1.0253290000  -1.5532520000
C  -0.2740620000  -0.6580300000  -0.8795190000
C  -0.5314460000  1.5217730000  0.3292040000
H  -7.6691860000  -0.4130890000  1.0752960000
H  -6.4189070000  -0.6481520000  2.2931970000
H  -6.9273280000  -1.9986040000  1.2651020000
H  -6.4008660000  -0.6134920000  -1.7517270000
H  -6.1374440000  -2.1972110000  -1.0236590000
H  -4.7623640000  -1.2327750000  -1.5618610000
H  -1.1650820000  2.3987360000  0.4886670000
C  0.8100850000  1.9697390000  -0.2398380000
H  -0.3725030000  1.0492030000  1.3026310000
H  -0.7302390000  -1.3482810000  -1.5939040000
H  -0.1190100000  -1.2158460000  0.0454810000
C  1.0636410000  -0.1685440000  -1.4239390000
H  0.9198170000  0.2957680000  -2.4090210000
H  1.7612070000  -0.9906180000  -1.5438800000
N  1.6503650000  0.8215000000  -0.5318140000
H  1.3448780000  2.6082160000  0.4584600000
H  0.6501140000  2.5361630000  -1.1669110000
C  2.8654070000  0.7120420000  0.0680390000
O  3.3224610000  1.5357680000  0.8350120000
O  3.4950860000  -0.4208070000  -0.2982050000
C  4.8081810000  -0.7645710000  0.2428160000
C  4.7265770000  -0.9326250000  1.7547480000
C  5.1014910000  -2.0983000000  -0.4287230000
H  6.0738040000  -2.4743180000  -0.1057340000
H  5.1154460000  -1.9846450000  -1.5139630000
H  4.3393280000  -2.8338630000  -0.1663740000
H  5.6766640000  -1.3217850000  2.1272150000
H  3.9420200000  -1.6472420000  2.0124770000
H  4.5174600000  0.0156140000  2.2445300000
C  5.8371820000  0.2807140000  -0.1686810000
H  6.8334420000  -0.0570000000  0.1251520000
H  5.6346510000  1.2383480000  0.3052490000
H  5.8284800000  0.4110350000  -1.2529610000
H  -3.5447440000  -1.1329780000  1.0391110000