14
charge=0, multiplicity=1, basis=def2-QZVPP, AUX_BASIS_CORR=rimp2-def2-QZVPPD, SCF_ALGORITHM=GDM, xc_grid=000099000590, mem_total=3750, num_basis=636, num_pairs=177708, num_threads=1
H  3.1393460000  0.7704030000  -0.0000290000
O  2.7566810000  -0.1106180000  -0.0000440000
C  1.3909690000  -0.0261780000  -0.0000220000
C  0.6739810000  -1.2127950000  -0.0000100000
C  -0.7123500000  -1.1856680000  0.0000090000
C  -1.3909690000  0.0261750000  0.0000210000
C  -0.6739800000  1.2127950000  0.0000110000
C  0.7123480000  1.1856670000  -0.0000120000
H  1.2664090000  2.1187470000  -0.0000220000
H  -1.2664080000  -2.1187490000  0.0000160000
H  1.2112510000  -2.1523260000  -0.0000180000
H  -1.2112530000  2.1523240000  0.0000200000
O  -2.7566800000  0.1106210000  0.0000390000
H  -3.1393490000  -0.7703990000  0.0000860000