55
charge=0, multiplicity=1, basis=def2-QZVPP, mem_total=120000, AUX_BASIS_CORR=rimp2-def2-QZVPPD, SCF_ALGORITHM=GDM, xc_grid=000099000590, num_basis=2325, num_pairs=1431580, num_threads=32
C  3.1615250000  1.5275440000  -0.5797660000
C  4.1340550000  1.2425980000  0.5867560000
C  5.2537090000  0.2125440000  0.3120510000
C  4.9498290000  -1.1792600000  0.9264370000
C  3.6138400000  -1.7210910000  0.5430850000
C  1.8628900000  2.0797530000  -0.0552650000
H  4.5849000000  2.2020430000  0.8533190000
H  3.5637700000  0.9163710000  1.4596370000
H  3.6366170000  2.2521910000  -1.2456580000
H  5.7527540000  -1.8472760000  0.6054060000
H  5.0072450000  -1.0852790000  2.0150130000
H  6.1606930000  0.5590870000  0.8114770000
O  5.6096190000  0.1277860000  -1.0534360000
H  4.7947670000  0.0005360000  -1.5593830000
O  2.9357110000  0.3960010000  -1.4213470000
H  2.3511210000  -0.2125950000  -0.9551320000
C  0.6697090000  1.7364180000  -0.5378030000
C  2.5460610000  -1.6888640000  1.3445790000
C  -0.6395400000  2.0962880000  0.0172490000
C  -0.6617810000  2.9579370000  1.2472540000
H  -0.1373100000  3.8991650000  1.0633970000
H  -0.1493350000  2.4636580000  2.0776730000
H  -1.6714790000  3.1992050000  1.5712460000
C  -1.7260070000  1.5818330000  -0.5740880000
C  -1.5445970000  -1.6600930000  -0.2953760000
C  -3.1584450000  1.6570000000  -0.1375050000
H  -1.5623980000  0.9880410000  -1.4709120000
H  -1.2299910000  -0.7763020000  0.2378280000
C  -3.6105690000  0.2939350000  0.4273450000
H  -3.2510800000  2.3595300000  0.6936970000
H  -2.8640310000  -0.0546740000  1.1448170000
C  1.1641430000  -1.9462960000  0.9531960000
C  -4.0485290000  2.1378360000  -1.2866240000
H  -3.6929350000  3.1004510000  -1.6572320000
H  -4.0300020000  1.4243280000  -2.1115690000
H  -5.0853080000  2.2608270000  -0.9709820000
C  -4.9579630000  0.3394340000  1.1332710000
H  -4.9198690000  1.1365650000  1.8823210000
H  -5.7284750000  0.6133970000  0.4097520000
C  -5.3166960000  -0.9862280000  1.7927110000
H  -4.5665870000  -1.2753420000  2.5344590000
H  -6.2792680000  -0.9207910000  2.3027060000
H  -5.3837560000  -1.7826310000  1.0502940000
O  -3.7414040000  -0.6704800000  -0.6346470000
C  -2.9110320000  -1.7150700000  -0.8610070000
O  -3.2994930000  -2.6086540000  -1.5653000000
C  -0.6661620000  -2.6350890000  -0.5516640000
H  -0.9993380000  -3.4657400000  -1.1663140000
C  0.7264940000  -2.6133380000  -0.1233450000
H  1.4297490000  -3.1687580000  -0.7371400000
H  0.4181820000  -1.4964450000  1.6027890000
H  3.5030220000  -2.0553730000  -0.4849800000
H  2.6833720000  -1.3299980000  2.3613590000
H  0.6358250000  1.0820460000  -1.4036930000
H  1.9480660000  2.7497910000  0.7946820000