7
charge=0, multiplicity=1, basis=def2-QZVPP, mem_total=3750, AUX_BASIS_CORR=rimp2-def2-QZVPPD, SCF_ALGORITHM=GDM, xc_grid=000099000590, num_basis=264, num_pairs=35447, num_threads=1
N  0.7461200000  -0.0000010000  -0.1160450000
C  -0.7061400000  -0.0000010000  0.0176470000
H  -1.1143470000  0.8776950000  -0.4866480000
H  -1.1143650000  -0.8776100000  -0.4867860000
H  -1.0771560000  -0.0000770000  1.0515620000
H  1.1599360000  -0.8172420000  0.3141520000
H  1.1599330000  0.8172420000  0.3141530000