34
charge=0, multiplicity=1, basis=def2-QZVPP, mem_total=60000, AUX_BASIS_CORR=rimp2-def2-QZVPPD, SCF_ALGORITHM=GDM, xc_grid=000099000590, num_basis=1506, num_pairs=792297, num_threads=16
C  -1.6658860000  -2.1097080000  0.6994410000
C  -0.4091130000  -1.9332220000  1.1301810000
C  0.5908700000  -1.1719000000  0.3973170000
C  0.2185990000  -0.5799770000  -0.7626340000
C  -1.1717310000  -0.5832730000  -1.2925800000
C  -2.1211230000  -1.5269470000  -0.5631210000
C  1.9585640000  -1.0141260000  0.8356380000
C  2.4077980000  0.3276800000  -1.1644810000
C  2.8090010000  -0.2903440000  0.0751360000
O  1.0679420000  0.1195890000  -1.5213140000
O  3.0747100000  0.9880420000  -1.9062380000
O  -3.2253320000  -1.7384840000  -1.0188610000
C  -1.0901620000  2.2105430000  0.7997500000
C  -1.9085250000  1.3797700000  0.1551820000
C  -1.7613820000  0.8610870000  -1.2445780000
C  -1.3649320000  2.6052380000  2.2238050000
C  0.1505920000  2.8232010000  0.2147850000
C  2.4131030000  -1.6407090000  2.1179530000
H  -2.3842780000  -2.7030330000  1.2499800000
H  -0.1054430000  -2.3907550000  2.0641100000
H  3.8409020000  -0.1358690000  0.3583530000
H  -0.5224500000  2.3355760000  2.8687940000
H  -1.4909520000  3.6889090000  2.3092590000
H  -2.2627460000  2.1236400000  2.6119500000
H  0.2996000000  2.5916180000  -0.8372810000
H  0.1220690000  3.9112110000  0.3229600000
H  1.0357960000  2.4809080000  0.7611900000
H  1.8267200000  -1.2698000000  2.9622030000
H  2.2889980000  -2.7259100000  2.0864200000
H  3.4625850000  -1.4214990000  2.3066170000
H  -1.1275930000  1.5024070000  -1.8550210000
H  -2.7389170000  0.8037360000  -1.7259200000
H  -1.1465690000  -0.8893640000  -2.3421140000
H  -2.7703320000  1.0011730000  0.6990520000