21
charge=0, multiplicity=2, basis=def2-QZVPP, AUX_BASIS_CORR=rimp2-def2-QZVPPD, SCF_ALGORITHM=GDM, xc_grid=000099000590, mem_total=15000, num_basis=900, num_pairs=322077, num_threads=4
C  2.0894980000  -0.6642750000  1.0198700000
C  2.2477240000  -0.2839910000  -0.4316860000
C  1.1962670000  0.4001750000  0.4757180000
H  2.8794370000  -0.3609740000  1.6956620000
H  1.6521260000  -1.6287620000  1.2453780000
C  3.4026130000  0.4583930000  -0.8926780000
H  3.9572520000  1.0911770000  -0.2108810000
H  3.6899600000  0.4505540000  -1.9344640000
H  1.8077050000  -0.9696890000  -1.1466590000
H  -2.5363680000  -2.2314350000  -0.4591590000
C  -2.1410010000  -1.2405360000  -0.2693620000
C  -0.7864050000  -1.0792260000  -0.0217690000
H  -0.1443570000  -1.9524540000  -0.0228390000
C  -0.2493250000  0.1846840000  0.2258900000
C  -1.1127140000  1.2794780000  0.2188070000
H  -0.7133850000  2.2694390000  0.4091590000
C  -2.4689380000  1.1202500000  -0.0259420000
H  -3.1201440000  1.9863120000  -0.0241410000
C  -2.9901820000  -0.1418050000  -0.2721780000
H  -4.0485250000  -0.2694170000  -0.4637480000
H  1.4510790000  1.4163730000  0.7516740000