45
charge=0, multiplicity=1, basis=def2-QZVPP, mem_total=120000, AUX_BASIS_CORR=rimp2-def2-QZVPPD, SCF_ALGORITHM=GDM, xc_grid=000099000590, num_basis=1971, num_pairs=1137962, num_threads=32
C  -3.9450680000  -2.1348900000  -0.5077200000
C  -2.8083400000  -1.6552110000  0.1258590000
C  -2.6321700000  -0.2872590000  0.3132440000
C  -3.6139380000  0.5889990000  -0.1362700000
C  -4.7520000000  0.1104780000  -0.7704310000
C  -4.9189900000  -1.2539860000  -0.9592550000
H  -4.0732450000  -3.2018410000  -0.6447620000
H  -2.0602950000  -2.3495510000  0.4892690000
H  -3.4879270000  1.6559120000  0.0130240000
H  -5.5108060000  0.8040630000  -1.1122870000
H  -5.8075430000  -1.6306930000  -1.4510910000
C  -1.3694250000  0.2523160000  0.9334850000
C  -0.1568040000  0.2404460000  -0.0327940000
C  -0.0527730000  2.4886410000  -0.9063410000
C  1.1715870000  1.9528780000  1.1196250000
C  0.9083010000  3.6228120000  -1.2378360000
H  -0.9209450000  2.9000830000  -0.3588570000
H  -0.4411580000  2.0375240000  -1.8234150000
C  2.1778110000  3.0631060000  0.8483440000
H  0.3778160000  2.3385700000  1.7839370000
H  1.6562610000  1.1254550000  1.6387180000
C  1.5415150000  4.1848640000  0.0321740000
H  0.3737600000  4.4043840000  -1.7838740000
H  1.6902960000  3.2370180000  -1.8988000000
H  2.5600900000  3.4445280000  1.7983470000
H  3.0248490000  2.6404160000  0.3000300000
H  2.2817220000  4.9495810000  -0.2148310000
H  0.7685130000  4.6767620000  0.6346300000
N  0.6209820000  1.4548560000  -0.1349160000
N  0.6016290000  -0.8426210000  0.5696730000
N  0.1191860000  -1.1762550000  1.7924740000
N  -0.9363250000  -0.5892170000  2.0726630000
C  1.7435040000  -1.4683850000  0.0515640000
C  2.3353470000  -2.5346190000  0.7305760000
C  2.2807850000  -1.0358370000  -1.1596010000
C  3.4501620000  -3.1550880000  0.1926700000
C  3.3928820000  -1.6756260000  -1.6868190000
C  3.9863780000  -2.7356370000  -1.0183140000
H  1.9152020000  -2.8669890000  1.6687360000
H  3.9017360000  -3.9817780000  0.7280410000
H  4.8565720000  -3.2284540000  -1.4331170000
H  3.8015220000  -1.3308430000  -2.6292330000
H  1.8492690000  -0.1846370000  -1.6656260000
H  -1.5554660000  1.2579920000  1.3112270000
H  -0.4711220000  -0.0328510000  -1.0422860000