52
charge=0, multiplicity=1, basis=def2-QZVPP, mem_total=120000, AUX_BASIS_CORR=rimp2-def2-QZVPPD, SCF_ALGORITHM=GDM, xc_grid=000099000590, num_basis=2140, num_pairs=1349462, num_threads=32
C  -0.5871680000  2.2245520000  -0.2205070000
C  0.2067000000  1.3132820000  -1.2040480000
C  2.0237990000  0.9563420000  1.2840230000
H  -1.6492390000  2.1603160000  -0.4681140000
C  1.5029240000  1.9733420000  -1.7175230000
H  2.0953000000  1.2363310000  -2.2702260000
H  1.2186290000  2.7343680000  -2.4527330000
H  2.6398040000  0.6157550000  2.1218250000
H  -0.4228500000  1.1835620000  -2.0902010000
C  2.3859120000  2.6525200000  -0.6768700000
H  3.2051100000  3.1560890000  -1.1997760000
H  1.8203710000  3.4516060000  -0.1902870000
C  2.9927110000  1.7469200000  0.3880400000
H  3.6926770000  1.0555760000  -0.0892780000
H  3.6041680000  2.3748370000  1.0451440000
C  0.9346690000  1.8661480000  1.9101340000
H  0.7922140000  1.5603520000  2.9511460000
C  -0.4581870000  1.8677520000  1.2675280000
H  -0.9154010000  0.8836610000  1.4258160000
H  -1.0849110000  2.5600280000  1.8379380000
H  1.3165520000  2.8912470000  1.9572830000
H  -0.3054530000  3.2696050000  -0.3808590000
C  1.4239040000  -0.3118370000  0.6317440000
H  0.9120330000  -0.8880890000  1.4189010000
Si  2.7218820000  -1.6094870000  0.0922570000
C  3.3413800000  -1.3614360000  -1.6679810000
H  2.5178430000  -1.3662520000  -2.3873990000
H  3.8874020000  -0.4259040000  -1.7979410000
H  4.0152950000  -2.1778610000  -1.9421670000
C  1.9660280000  -3.3300010000  0.1781470000
H  2.7454200000  -4.0824030000  0.0290120000
H  1.5056640000  -3.5225750000  1.1504710000
H  1.2070690000  -3.4914440000  -0.5893020000
C  4.1760350000  -1.5660570000  1.2819700000
H  3.8484270000  -1.7432420000  2.3096450000
H  4.8910700000  -2.3520570000  1.0242290000
H  4.7090280000  -0.6140180000  1.2623730000
B  0.3645280000  -0.0784020000  -0.4786560000
C  -3.0281540000  -1.0571740000  -0.0543670000
C  -2.0606010000  -0.7508690000  -0.9155310000
C  -0.6599650000  -1.2451780000  -0.8434560000
C  -4.3607210000  -0.4469710000  -0.1851930000
O  -4.6972000000  0.3593510000  -1.0176770000
O  -5.1970010000  -0.9004130000  0.7682530000
C  -6.5208750000  -0.3658210000  0.7361980000
H  -7.0473620000  -0.8331590000  1.5643240000
H  -6.4985080000  0.7172220000  0.8582170000
H  -7.0062800000  -0.6045330000  -0.2102000000
H  -0.3591530000  -1.5962670000  -1.8426050000
H  -2.8789830000  -1.7492730000  0.7657570000
H  -2.3115820000  -0.0491070000  -1.7060890000
H  -0.5900930000  -2.0941160000  -0.1616820000