31
charge=0, multiplicity=1, basis=def2-QZVPP, AUX_BASIS_CORR=rimp2-def2-QZVPPD, SCF_ALGORITHM=GDM, xc_grid=000099000590, mem_total=60000, num_basis=1443, num_pairs=663278, num_threads=16
C  0.9673790000  -0.6192980000  0.0000060000
C  0.9481150000  0.7845240000  0.0000090000
N  -0.2266640000  1.4842040000  0.0000010000
N  -0.2373900000  -1.3004340000  -0.0000080000
C  -1.4306870000  -0.6259990000  -0.0000160000
C  -1.3317270000  0.8312410000  -0.0000100000
N  -2.5397790000  -1.2971230000  -0.0000250000
C  -3.7458910000  -0.6329630000  -0.0000330000
N  -3.7207120000  0.7758990000  -0.0000320000
C  -2.6192300000  1.5953590000  -0.0000180000
C  -0.2470610000  -2.7617450000  -0.0000140000
H  0.2575860000  -3.1347600000  -0.8916890000
H  -1.2821510000  -3.0850190000  -0.0000310000
H  0.2575570000  -3.1347670000  0.8916740000
H  -4.6263290000  1.2273740000  -0.0000370000
O  -4.8132620000  -1.1943110000  -0.0000410000
O  -2.6920670000  2.7978870000  -0.0000150000
C  2.2016090000  -1.2765390000  0.0000160000
C  3.3873020000  -0.5653870000  0.0000290000
C  3.3726030000  0.8502690000  0.0000330000
C  2.1574740000  1.4926190000  0.0000220000
C  4.6947250000  -1.3031620000  0.0000390000
H  5.2921090000  -1.0444570000  0.8778870000
H  5.2921200000  -1.0444600000  -0.8778030000
H  4.5417000000  -2.3817590000  0.0000400000
C  4.6559570000  1.6318370000  0.0000470000
H  5.2639390000  1.4031790000  -0.8790250000
H  5.2639200000  1.4031760000  0.8791310000
H  4.4565370000  2.7028240000  0.0000470000
H  2.0917840000  2.5737760000  0.0000240000
H  2.2422630000  -2.3560580000  0.0000150000