30
charge=0, multiplicity=1, basis=def2-QZVPP, AUX_BASIS_CORR=rimp2-def2-QZVPPD, SCF_ALGORITHM=GDM, xc_grid=000099000590, mem_total=30000, num_basis=1170, num_pairs=426386, num_threads=8
C  -5.5723720000  -0.2947020000  0.5820320000
C  -4.5929490000  -0.2509640000  -0.3096820000
C  -3.3395930000  0.5576040000  -0.1770030000
C  -2.0754290000  -0.3044910000  -0.1771870000
C  0.4697880000  -0.3375310000  -0.0860750000
C  -0.7936200000  0.5155600000  -0.0893880000
C  1.7529140000  0.4808070000  0.0045720000
C  3.0165420000  -0.3718200000  0.0079720000
C  4.3010250000  0.4452110000  0.0987970000
C  5.5576780000  -0.4177060000  0.1015720000
H  -5.5289840000  0.2863160000  1.4978330000
H  -6.4525020000  -0.9081430000  0.4312550000
H  -4.6763990000  -0.8524920000  -1.2133090000
H  -3.2798610000  1.2683730000  -1.0101830000
H  -3.3819890000  1.1526020000  0.7405570000
H  -2.1218930000  -1.0067360000  0.6618610000
H  -2.0542380000  -0.9161270000  -1.0865510000
H  0.4949190000  -0.9507740000  -0.9945820000
H  0.4290590000  -1.0411360000  0.7536710000
H  -0.8180610000  1.1296810000  0.8185260000
H  -0.7545800000  1.2181760000  -0.9302370000
H  1.7934690000  1.1846860000  -0.8351480000
H  1.7275790000  1.0939290000  0.9132060000
H  2.9765770000  -1.0759750000  0.8476490000
H  3.0425420000  -0.9853050000  -0.9005870000
H  4.3402190000  1.1481190000  -0.7404850000
H  4.2742190000  1.0575940000  1.0066880000
H  6.4625520000  0.1902110000  0.1672280000
H  5.5584940000  -1.1079700000  0.9494630000
H  5.6249750000  -1.0168420000  -0.8105130000