27
charge=0, multiplicity=2, basis=def2-QZVPP, AUX_BASIS_CORR=rimp2-def2-QZVPPD, SCF_ALGORITHM=GDM, xc_grid=000099000590, mem_total=30000, num_basis=1093, num_pairs=447976, num_threads=8
C  -0.9914520000  2.3794200000  -0.1245150000
C  -1.0452920000  0.8975380000  0.0298360000
O  -0.0512720000  0.2011420000  -0.6097140000
C  -2.1517550000  0.2125820000  0.4946700000
Si  1.4600980000  -0.2234990000  -0.0166020000
C  1.2588210000  -1.3462240000  1.4648850000
H  0.6174110000  -0.8842850000  2.2194840000
H  2.2263400000  -1.5515640000  1.9309370000
H  0.8132010000  -2.3039600000  1.1877180000
C  2.4134260000  1.3060180000  0.4850340000
H  2.4914790000  2.0165500000  -0.3409450000
H  1.9419210000  1.8161100000  1.3283400000
H  3.4284430000  1.0376040000  0.7910940000
C  2.2825690000  -1.0978630000  -1.4392890000
H  2.3854970000  -0.4324660000  -2.2991430000
H  1.6955940000  -1.9632150000  -1.7546120000
H  3.2800350000  -1.4497800000  -1.1634670000
H  -1.8215070000  2.8554860000  0.3981170000
H  -0.0573070000  2.7953650000  0.2616800000
H  -1.0510920000  2.6537250000  -1.1850560000
C  -2.3271610000  -1.2626990000  0.4467600000
H  -2.9098880000  0.7867570000  1.0095100000
C  -3.1024380000  -0.8842190000  -0.7544300000
H  -2.8923170000  -1.6898320000  1.2712020000
H  -1.4168070000  -1.8208700000  0.2550970000
H  -4.1688760000  -0.7222670000  -0.7015170000
H  -2.6136280000  -0.8508240000  -1.7159900000