16
charge=-1, multiplicity=1, basis=def2-QZVPP, AUX_BASIS_CORR=rimp2-def2-QZVPPD, SCF_ALGORITHM=GDM, xc_grid=000099000590, mem_total=7500, num_basis=669, num_pairs=197866, num_threads=2
C  -1.7488190000  1.1417470000  -0.3735650000
C  -1.2229170000  -0.1880600000  0.1515980000
C  -0.2951670000  -0.1079350000  1.2085380000
O  -1.5559970000  -1.2431610000  -0.4357990000
C  1.4835080000  0.2557540000  -0.0047870000
H  -2.5262070000  1.5337840000  0.2902370000
H  -0.9333270000  1.8713540000  -0.4119250000
H  -2.1743130000  0.9962590000  -1.3681660000
H  -0.0638360000  -1.0246400000  1.7428230000
H  -0.1965100000  0.8165100000  1.7590000000
C  1.7342690000  -1.1721440000  -0.3087690000
H  2.0543020000  -1.7140570000  0.5859950000
H  2.5265450000  -1.2531370000  -1.0629510000
H  0.8297910000  -1.6586140000  -0.6817510000
C  1.7803740000  1.4576670000  -0.1344790000
H  2.5440430000  2.0556550000  -0.5980770000