32
charge=0, multiplicity=1, basis=def2-QZVPP, mem_total=30000, AUX_BASIS_CORR=rimp2-def2-QZVPPD, SCF_ALGORITHM=GDM, xc_grid=000099000590, num_basis=1338, num_pairs=618805, num_threads=8
C  -0.8408840000  -0.2090700000  2.8446950000
C  -1.2009280000  -0.3858400000  1.4078350000
C  -2.0409570000  0.4348910000  0.7026830000
C  -2.0409570000  0.4348910000  -0.7026830000
C  -1.2009280000  -0.3858400000  -1.4078350000
C  0.7785270000  0.2100620000  -0.6152420000
C  1.2984300000  0.4150580000  -1.9794980000
N  0.6001960000  -0.4012840000  -2.9632340000
H  2.3621760000  0.1658920000  -2.0191700000
H  1.2056560000  1.4919240000  -2.2188100000
C  0.7785270000  0.2100620000  0.6152420000
C  -0.8408840000  -0.2090700000  -2.8446950000
H  -1.1511680000  0.7927430000  -3.1931550000
H  -1.3316910000  -0.9516870000  -3.4815960000
H  -0.9289250000  -1.3525740000  -1.0010030000
H  -2.5031900000  1.2753960000  -1.2118230000
H  -0.9289250000  -1.3525740000  1.0010030000
C  1.2984300000  0.4150580000  1.9794980000
N  0.6001960000  -0.4012840000  2.9632340000
H  1.2056560000  1.4919240000  2.2188100000
H  2.3621760000  0.1658920000  2.0191700000
C  1.0870170000  -0.1732580000  4.3053760000
H  2.1543720000  -0.3959500000  4.3582190000
H  0.5693470000  -0.8355690000  5.0013270000
H  0.9348250000  0.8677540000  4.6426230000
C  1.0870170000  -0.1732580000  -4.3053760000
H  2.1543720000  -0.3959500000  -4.3582190000
H  0.9348250000  0.8677540000  -4.6426230000
H  0.5693470000  -0.8355690000  -5.0013270000
H  -1.3316910000  -0.9516870000  3.4815960000
H  -1.1511680000  0.7927430000  3.1931550000
H  -2.5031900000  1.2753960000  1.2118230000