58
charge=1, multiplicity=1, basis=def2-QZVPP, mem_total=240000, AUX_BASIS_CORR=rimp2-def2-QZVPPD, SCF_ALGORITHM=GDM, xc_grid=000099000590, num_basis=2577, num_pairs=1717994, num_threads=64
C  0.3098140000  0.9436470000  1.9336120000
C  -0.7898720000  1.7559810000  2.4235040000
C  -2.0516070000  1.4066200000  2.1090930000
N  -2.3096170000  0.2366610000  1.4363720000
C  -1.3393140000  -0.7120420000  1.3349970000
C  -0.0533930000  -0.4397320000  1.6719420000
C  1.0406470000  -1.4465940000  1.6925160000
O  2.1970640000  -1.0781540000  1.7798980000
N  0.6955070000  -2.7594940000  1.5767810000
C  -3.5680380000  0.0838000000  0.7080920000
C  -3.4049980000  0.3674810000  -0.7873120000
C  -4.6045350000  -0.3756580000  -1.3441150000
C  -4.6390470000  -1.6292630000  -0.4681860000
O  -4.0182320000  -1.2333410000  0.7902020000
H  -4.2737170000  0.7927030000  1.1546780000
C  -6.0093730000  -2.1988210000  -0.2072140000
H  -3.9939360000  -2.3811920000  -0.9319710000
H  -5.9464050000  -3.0812500000  0.4297950000
H  -6.4685470000  -2.4890280000  -1.1542610000
H  -6.6484850000  -1.4615000000  0.2824520000
O  -4.4777720000  -0.7520310000  -2.6907970000
H  -5.5045410000  0.2316700000  -1.1864980000
O  -3.3798010000  1.7203650000  -1.1278490000
H  -2.5068020000  -0.1547230000  -1.1434320000
H  -2.4739480000  2.0727730000  -1.0593470000
H  -4.6525260000  0.0084740000  -3.2527530000
H  -0.2158260000  -3.0837280000  1.8549070000
H  1.4541580000  -3.4182530000  1.6693800000
H  -2.9192430000  1.9978800000  2.3695790000
H  -0.6037640000  2.6486920000  3.0051540000
H  -1.6886980000  -1.6729760000  0.9823400000
H  0.6767880000  1.4382600000  0.7495010000
C  4.6249010000  0.6599320000  -0.2230000000
N  5.2300180000  -0.5915250000  -0.4070240000
C  4.5582290000  -1.6890860000  -0.8523780000
N  3.2889050000  -1.6713470000  -1.1648760000
C  2.6398250000  -0.4999850000  -1.0032730000
C  3.2561170000  0.6628610000  -0.6041480000
N  2.5187010000  1.8249150000  -0.3977480000
C  1.1715520000  1.8400240000  -0.4703600000
C  0.5983650000  0.7682310000  -1.3843580000
N  1.2938100000  -0.4904800000  -1.2042630000
H  0.6715460000  1.1430260000  -2.4163760000
H  -0.4567420000  0.6324810000  -1.1617700000
C  0.5583660000  3.2197250000  -0.6305360000
N  -0.9029590000  3.2048330000  -0.5455410000
H  0.8420390000  3.5750940000  -1.6251110000
H  1.0234870000  3.8987540000  0.0936230000
O  5.2400480000  1.6096500000  0.2271230000
H  6.1957230000  -0.6499410000  -0.1113760000
N  5.2476610000  -2.8446050000  -0.9551560000
H  6.2527060000  -2.8660640000  -0.9239780000
H  4.7702160000  -3.6222920000  -1.3803820000
H  0.9114320000  -1.3199500000  -1.6335320000
H  -1.2771100000  4.0182720000  -1.0227150000
H  -1.2033350000  3.2706360000  0.4208620000
H  3.0394750000  2.5980380000  0.0042620000
H  1.2855830000  1.0768020000  2.3952870000