21
charge=0, multiplicity=2, basis=def2-QZVPP, AUX_BASIS_CORR=rimp2-def2-QZVPPD, SCF_ALGORITHM=GDM, xc_grid=000099000590, mem_total=15000, num_basis=900, num_pairs=303366, num_threads=4
C  -1.9509510000  0.4841470000  -0.1084210000
C  -3.3005750000  -0.1042070000  -0.3945550000
C  -0.8668640000  -0.5453120000  -0.0555080000
H  -1.9910960000  1.0453390000  0.8350490000
H  -1.7146660000  1.2246940000  -0.8839620000
C  -4.3550610000  -0.0039520000  0.4004550000
H  3.5184540000  -1.8665580000  0.1217770000
C  2.8144030000  -1.0440800000  0.0766870000
C  1.4613580000  -1.3034880000  0.0402890000
H  1.1040130000  -2.3269690000  0.0571110000
C  0.5117490000  -0.2528490000  -0.0204230000
C  1.0111480000  1.0726080000  -0.0381990000
H  0.3193370000  1.9043910000  -0.0787900000
C  2.3691360000  1.3208300000  -0.0006160000
H  2.7264350000  2.3438560000  -0.0145570000
C  3.2817670000  0.2701550000  0.0560860000
H  4.3452770000  0.4719570000  0.0850270000
H  -1.1646820000  -1.5873900000  -0.0097750000
H  -3.3887340000  -0.6530740000  -1.3296620000
H  -4.3041060000  0.5311040000  1.3432910000
H  -5.3068990000  -0.4504690000  0.1397260000