51
charge=1, multiplicity=1, basis=def2-QZVPP, mem_total=120000, AUX_BASIS_CORR=rimp2-def2-QZVPPD, SCF_ALGORITHM=GDM, xc_grid=000099000590, num_basis=2124, num_pairs=1397705, num_threads=32
C  -1.8352400000  3.2881530000  -0.0320490000
C  -1.5556670000  1.8303170000  0.3498530000
C  0.4509310000  2.7487290000  0.5168930000
C  -0.4165050000  3.9207260000  0.0427150000
H  -2.2820720000  3.3573330000  -1.0215740000
H  -2.5157790000  3.7490970000  0.6836400000
H  -0.0730260000  4.3317940000  -0.9093470000
H  -0.3594030000  4.7271140000  0.7731830000
C  -0.4852770000  1.9778450000  1.4358890000
H  -0.0844410000  1.0415890000  1.8156790000
H  -0.8113690000  2.5942260000  2.2724970000
H  -2.4286340000  1.2298470000  0.5763460000
H  1.4485820000  2.9970690000  0.8580840000
N  0.5299640000  1.7991990000  -0.6790590000
N  -0.8229400000  1.2344480000  -0.7953980000
C  -0.6460200000  -0.2418640000  -0.8836370000
C  -1.8329570000  -0.9973500000  -0.3415460000
C  -1.8876090000  -1.4828630000  0.9622210000
C  -2.9270730000  -1.1956510000  -1.1800810000
C  -3.0181140000  -2.1452470000  1.4195050000
H  -1.0492140000  -1.3601410000  1.6361130000
C  -4.0601570000  -1.8518350000  -0.7234980000
H  -2.8897870000  -0.8321070000  -2.2010040000
C  -4.1076110000  -2.3273210000  0.5795520000
H  -3.0451310000  -2.5249870000  2.4332380000
H  -4.9024610000  -1.9993610000  -1.3876640000
H  -4.9878380000  -2.8466450000  0.9371480000
C  0.7280060000  -0.5738970000  -0.2903010000
C  1.5540570000  0.6420540000  -0.6891800000
C  1.2177760000  -1.9258620000  -0.8289760000
H  0.3220220000  -2.5112900000  -1.0484830000
H  1.7208790000  -1.7821410000  -1.7914650000
C  2.7965690000  1.0098180000  0.1006720000
H  2.5630100000  1.0595560000  1.1680370000
H  3.1001080000  2.0156000000  -0.2065960000
C  4.0034170000  0.0867840000  -0.1087930000
H  4.0970390000  -0.1704050000  -1.1690930000
H  4.8828430000  0.6908230000  0.1206270000
C  4.0709380000  -1.1852690000  0.7516450000
H  5.1186560000  -1.3309010000  1.0218080000
H  3.5484410000  -1.0205180000  1.7012190000
C  2.0901200000  -2.7691040000  0.1031610000
H  1.9590740000  -3.8126670000  -0.1926340000
H  1.6961990000  -2.7033220000  1.1240680000
C  3.5905190000  -2.4903380000  0.1143480000
H  4.0615380000  -3.3126840000  0.6586630000
H  3.9791720000  -2.5557190000  -0.9084900000
H  -0.5879770000  -0.4607980000  -1.9547360000
H  0.6724790000  -0.6230660000  0.7983910000
H  1.8195570000  0.5463630000  -1.7456620000
H  0.6977430000  2.3638590000  -1.5111460000