28
charge=0, multiplicity=1, basis=def2-QZVPP, mem_total=30000, AUX_BASIS_CORR=rimp2-def2-QZVPPD, SCF_ALGORITHM=GDM, xc_grid=000099000590, num_basis=1272, num_pairs=633343, num_threads=8
C  0.6989760000  1.2720790000  -0.7337740000
C  -0.0534560000  0.2716680000  0.1165940000
C  0.5561410000  -0.8801990000  0.5735670000
C  2.0645170000  -1.0016490000  0.4360120000
C  2.6814100000  0.0564580000  1.3466200000
C  2.7640710000  1.2061810000  0.6862800000
C  2.2221290000  1.0326680000  -0.7205770000
H  0.3315820000  1.2165660000  -1.7656240000
H  0.4656960000  2.2825940000  -0.3864430000
H  2.7012120000  1.6761360000  -1.4590890000
C  2.4753310000  -0.4646980000  -0.9428330000
H  3.0803080000  2.1557800000  1.0987280000
H  2.9105720000  -0.1071220000  2.3914210000
C  -1.4654160000  0.3964440000  0.2331070000
H  0.0741260000  -1.4444510000  1.3631950000
H  3.5342780000  -0.6530270000  -1.1241800000
H  1.8900070000  -0.8848150000  -1.7620520000
H  2.3978300000  -2.0186830000  0.6436330000
C  -2.2575020000  -0.8728630000  -1.2604280000
C  -2.1084960000  -0.2571100000  1.3448960000
C  -2.0768400000  1.6411890000  -0.1536880000
N  -2.6114340000  -0.8049150000  2.2193910000
N  -2.5588760000  2.6215430000  -0.5067520000
H  -3.2272170000  -1.0601160000  -0.8117310000
H  -2.2747660000  -0.1966530000  -2.1098500000
C  -1.3144490000  -1.8627870000  -1.2465840000
C  -0.2272290000  -2.3110290000  -0.8759160000
H  0.5534320000  -3.0407180000  -0.8861340000