36
charge=1, multiplicity=1, basis=def2-QZVPP, AUX_BASIS_CORR=rimp2-def2-QZVPPD, SCF_ALGORITHM=GDM, xc_grid=000099000590, mem_total=60000, num_basis=1485, num_pairs=778362, num_threads=16
C  1.2037950000  1.3506120000  0.0411350000
C  1.2038430000  -1.3505930000  0.0411360000
C  -0.3218450000  -1.2485540000  0.1116530000
C  -0.8480640000  -0.0000270000  0.8188920000
C  -0.3218900000  1.2485190000  0.1116530000
H  -0.7355770000  -1.2682990000  -0.8969440000
H  -0.6725690000  -2.1455930000  0.6252810000
H  -0.5172470000  -0.0000210000  1.8595060000
H  -0.7356220000  1.2682490000  -0.8969450000
H  -0.6726450000  2.1455460000  0.6252810000
N  1.7704420000  0.0000200000  -0.4008990000
O  2.7237600000  0.0000370000  -1.0929020000
C  1.6368000000  2.3839590000  -0.9893800000
H  1.1502870000  3.3245660000  -0.7308440000
H  2.7134380000  2.5441820000  -0.9894390000
H  1.3164220000  2.1052830000  -1.9939670000
C  1.8517930000  1.6569600000  1.4033140000
H  2.9375670000  1.5649000000  1.3586300000
H  1.6137880000  2.6958440000  1.6328850000
H  1.4708320000  1.0399960000  2.2123770000
C  1.6368850000  -2.3839240000  -0.9893800000
H  2.7135290000  -2.5441090000  -0.9894380000
H  1.1504050000  -3.3245490000  -0.7308440000
H  1.3164970000  -2.1052600000  -1.9939660000
C  1.8518530000  -1.6569180000  1.4033140000
H  1.6138850000  -2.6958110000  1.6328850000
H  2.9376230000  -1.5648190000  1.3586300000
H  1.4708690000  -1.0399690000  2.2123780000
N  -2.3011180000  -0.0000570000  0.8722240000
C  -3.0929690000  -0.0000550000  -0.2453610000
C  -4.5777500000  0.0000380000  -0.0062870000
H  -5.0061180000  0.8789690000  -0.4888300000
H  -5.0064690000  -0.8779110000  -0.4902830000
H  -4.8521880000  -0.0007510000  1.0483420000
O  -2.6090980000  -0.0000660000  -1.3626090000
H  -2.7439890000  -0.0000580000  1.7759920000