20
charge=0, multiplicity=2, basis=def2-QZVPP, AUX_BASIS_CORR=rimp2-def2-QZVPPD, SCF_ALGORITHM=GDM, xc_grid=000099000590, mem_total=15000, num_basis=924, num_pairs=343343, num_threads=4
N  0.0965420000  0.2118550000  1.3819060000
H  0.3554520000  -0.4028660000  2.1439260000
C  0.4467150000  -0.2345720000  0.0843310000
H  -0.6443130000  -0.2458990000  -0.7006550000
C  0.9278220000  -1.6717780000  0.1115240000
C  1.3847970000  0.6810300000  -0.7135380000
H  0.1436130000  -2.3025550000  0.5304330000
H  1.1378770000  -2.0004420000  -0.9079690000
O  2.4759990000  0.2384240000  -1.0326470000
H  2.7821990000  -1.3433560000  0.5024780000
N  0.9399620000  1.9058380000  -1.0109120000
H  1.5566320000  2.5297100000  -1.5074290000
H  0.0390120000  2.2227430000  -0.6685340000
C  -0.7167570000  1.2623140000  1.6651420000
H  -0.9269220000  1.3631440000  2.7391970000
O  -1.1779270000  2.0168270000  0.8353010000
O  -1.5954810000  -0.2648140000  -1.4969920000
N  -2.6035520000  -0.8532370000  -0.9619820000
O  -2.4788580000  -1.2962310000  0.1368080000
O  2.0600580000  -1.8059110000  0.9476200000