15
charge=0, multiplicity=2, basis=def2-QZVPP, AUX_BASIS_CORR=rimp2-def2-QZVPPD, SCF_ALGORITHM=GDM, xc_grid=000099000590, mem_total=7500, num_basis=774, num_pairs=248346, num_threads=2
C  -0.4645750000  0.7056990000  0.0000040000
C  -0.4817970000  -0.6821310000  0.0001270000
N  -1.5691840000  -1.4287070000  0.0003490000
C  -2.7195810000  -0.7562570000  0.0004590000
C  -2.8136400000  0.6371030000  0.0003470000
C  -1.6583630000  1.4035020000  0.0001150000
C  0.9307170000  1.1977360000  -0.0002400000
C  0.9204450000  -1.2024690000  -0.0000280000
H  -3.6211760000  -1.3591600000  0.0006350000
H  -3.7900520000  1.1036530000  0.0004440000
H  -1.6793430000  2.4860390000  0.0000230000
O  1.3529540000  -2.3060900000  0.0000060000
O  1.3640500000  2.3061770000  -0.0003950000
N  1.7352140000  -0.0014250000  -0.0002480000
O  2.9891350000  -0.0049250000  -0.0004250000