41
charge=0, multiplicity=2, basis=def2-QZVPP, AUX_BASIS_CORR=rimp2-def2-QZVPPD, SCF_ALGORITHM=GDM, xc_grid=000099000590, mem_total=60000, num_basis=1756, num_pairs=976587, num_threads=16
N  1.4818360000  0.1314170000  0.5348870000
S  2.2221640000  -1.0550240000  -0.3725040000
O  1.1707510000  -2.2327110000  -0.1734580000
C  -0.1976370000  -2.0070380000  -0.6042400000
C  -1.1100360000  -2.0932290000  0.5980870000
H  -0.4110530000  -2.7817650000  -1.3408630000
H  -0.2726080000  -1.0369810000  -1.0958220000
C  -2.5433950000  -1.6581410000  0.2633050000
C  -2.6084080000  -0.1770310000  -0.0572080000
C  -3.5018010000  -2.0379920000  1.3940160000
C  2.0085330000  1.4929120000  0.4984550000
C  1.2684690000  2.1889420000  -0.6660800000
C  3.5240200000  1.6048360000  0.3132110000
C  1.5797830000  2.1198460000  1.8272420000
H  0.5006320000  2.0337640000  1.9552440000
H  1.8542520000  3.1762600000  1.8450780000
H  2.0708150000  1.6202220000  2.6636830000
H  1.5685780000  1.7643790000  -1.6226420000
H  1.5253860000  3.2501240000  -0.6464820000
H  0.1890730000  2.0891920000  -0.5534270000
H  3.8434410000  1.2199910000  -0.6553710000
H  4.0572840000  1.0608960000  1.0930670000
H  3.8073420000  2.6572290000  0.3685010000
O  3.4267240000  -1.4995130000  0.2762760000
O  2.2255940000  -0.6511910000  -1.7634600000
C  -2.9316110000  0.2639420000  -1.3362880000
H  -4.5208330000  -1.7212590000  1.1657400000
H  -3.2086190000  -1.5684270000  2.3357180000
H  -3.5043340000  -3.1191070000  1.5488260000
C  -2.3408330000  0.7793460000  0.9219650000
C  -2.9906890000  1.6200450000  -1.6347950000
C  -2.4066500000  2.1331610000  0.6325640000
C  -2.7318220000  2.5599370000  -0.6492570000
H  -2.2017610000  2.8603320000  1.4096480000
H  -2.0769570000  0.4641850000  1.9248310000
H  -3.1415930000  -0.4644150000  -2.1123370000
H  -3.2421650000  1.9396160000  -2.6390000000
H  -2.7810570000  3.6179380000  -0.8763840000
H  -0.7017940000  -1.4551330000  1.3848320000
H  -1.1111710000  -3.1182050000  0.9776100000
H  -2.8624410000  -2.1982640000  -0.6353250000