40
charge=0, multiplicity=1, basis=def2-QZVPP, mem_total=60000, AUX_BASIS_CORR=rimp2-def2-QZVPPD, SCF_ALGORITHM=GDM, xc_grid=000099000590, num_basis=1713, num_pairs=925414, num_threads=16
C  -1.0368960000  1.5308760000  -0.6329770000
H  -0.9675040000  1.8031680000  -1.7071280000
C  -2.0282800000  0.4215200000  -0.4767460000
C  -0.2099830000  -1.1540710000  0.1046020000
H  0.0127680000  -1.2275630000  1.1742280000
H  -0.0110600000  -2.1385920000  -0.3269050000
C  0.7145540000  -0.1111910000  -0.5249350000
H  0.6078530000  -0.1868890000  -1.6252700000
N  0.2653100000  1.2048920000  -0.0848770000
C  -2.6704790000  -1.8554150000  0.0434610000
C  -3.4700370000  0.7055850000  -0.8073980000
C  -3.9696520000  -1.5632330000  0.0970320000
C  -4.4418970000  -0.1320110000  0.0310500000
C  -1.6550710000  -0.8085810000  -0.1155710000
C  -4.6022620000  0.4260560000  1.4511780000
H  -4.9949480000  1.4460830000  1.4257260000
H  -5.2897350000  -0.1871850000  2.0376330000
H  -3.6398650000  0.4399990000  1.9674730000
C  1.2339910000  2.2549800000  -0.3275340000
H  1.5226830000  2.3012810000  -1.3939970000
H  0.7718410000  3.2124590000  -0.0770810000
C  2.1723970000  -0.3688540000  -0.1941700000
C  2.9974870000  0.6303440000  0.3208250000
C  2.4582690000  2.0192800000  0.5350830000
H  2.1802890000  2.1528150000  1.5849790000
H  3.2323170000  2.7563140000  0.3061270000
H  -1.4098100000  2.4223090000  -0.1172780000
C  4.3291390000  0.3373410000  0.6098020000
H  4.9641370000  1.1217310000  1.0082350000
C  2.7129450000  -1.6322010000  -0.4351520000
H  2.0889300000  -2.4089770000  -0.8609390000
C  4.8511480000  -0.9245350000  0.3876370000
H  5.8891130000  -1.1331950000  0.6172150000
C  4.0366920000  -1.9149790000  -0.1467860000
H  4.4335210000  -2.9040630000  -0.3413090000
H  -3.6295170000  0.4896270000  -1.8724110000
H  -3.6915350000  1.7688770000  -0.6728260000
H  -5.4207880000  -0.1029290000  -0.4558940000
H  -4.7057290000  -2.3431390000  0.2611770000
H  -2.3325290000  -2.8818460000  0.1459780000