54
charge=0, multiplicity=2, basis=def2-QZVPP, mem_total=120000, AUX_BASIS_CORR=rimp2-def2-QZVPPD, SCF_ALGORITHM=GDM, xc_grid=000099000590, num_basis=2376, num_pairs=1343623, num_threads=32
C  4.2944540000  -1.2485830000  -0.6925320000
C  3.5131110000  -0.0945740000  -0.0806020000
C  3.6360680000  1.2506550000  -0.7554400000
H  3.6252410000  -0.0505050000  1.0019040000
H  2.2547390000  -0.4511830000  -0.2214160000
C  2.9103410000  2.3573870000  0.0037570000
H  3.2349460000  1.1855960000  -1.7732830000
H  4.6953800000  1.5229270000  -0.8648360000
C  2.9636670000  3.7012150000  -0.7184370000
H  3.3527560000  2.4637970000  1.0009650000
H  1.8677780000  2.0681290000  0.1675270000
N  2.2991130000  4.8113230000  -0.0458280000
H  2.5177680000  3.5980110000  -1.7127030000
H  4.0069290000  3.9874700000  -0.8847180000
C  5.7730190000  -1.0359950000  -0.3889240000
N  4.0197030000  -1.3928470000  -2.1087120000
H  3.9937930000  -2.1676350000  -0.1821100000
H  4.4450270000  -0.6335350000  -2.6291980000
H  1.3142680000  4.6190090000  0.0954700000
H  2.7088170000  4.9884230000  0.8638660000
O  6.5902180000  -0.6302510000  -1.1705670000
O  6.0737630000  -1.3227590000  0.8920320000
H  4.4267740000  -2.2486810000  -2.4666220000
H  7.0117310000  -1.1239820000  1.0233660000
N  -2.7585690000  -1.1944200000  -0.0244260000
C  -3.7730480000  -0.2833960000  0.1071500000
C  -4.4607250000  -0.3242720000  -1.0958470000
N  -3.8935200000  -1.2414640000  -1.9542720000
C  -2.8939500000  -1.7399910000  -1.2813680000
C  -5.5571830000  0.5436470000  -1.2124520000
N  -5.8638780000  1.3345830000  -0.1773670000
C  -5.1169300000  1.2736420000  0.9236680000
N  -4.0595350000  0.5026230000  1.1544760000
N  -6.3066070000  0.6055540000  -2.3268340000
H  -6.0904720000  0.0181650000  -3.1139500000
H  -7.0833940000  1.2432970000  -2.3600390000
H  -5.4104500000  1.9382490000  1.7291970000
H  -2.2048600000  -2.4921650000  -1.6293940000
C  -1.8130000000  -1.5648300000  1.0274130000
C  -1.1990480000  -0.3324620000  1.7037580000
C  0.2161020000  -0.8105450000  1.9664000000
C  0.5163830000  -1.6429810000  0.7188570000
O  -0.7590150000  -2.3054880000  0.4729880000
H  -2.3426330000  -2.1737130000  1.7659520000
C  0.9744180000  -0.8633490000  -0.4746580000
H  1.2169050000  -2.4505800000  0.9333030000
H  0.4380120000  0.0615600000  -0.6734070000
H  1.1145720000  -1.4689110000  -1.3658960000
O  -1.8315530000  0.0671260000  2.8852270000
H  -1.1623320000  0.4922750000  0.9828950000
H  -2.7111010000  0.3975960000  2.6214560000
O  1.1465630000  0.2298150000  2.1473290000
H  0.1968830000  -1.4686150000  2.8433100000
H  0.8640780000  0.7466040000  2.9085840000