17
charge=0, multiplicity=1, basis=def2-QZVPP, AUX_BASIS_CORR=rimp2-def2-QZVPPD, SCF_ALGORITHM=GDM, xc_grid=000099000590, mem_total=7500, num_basis=766, num_pairs=252775, num_threads=2
N  -0.6125080000  -1.0913940000  -0.2781990000
H  0.0703680000  -1.5260410000  -0.8859680000
C  -0.1191010000  -0.0615000000  0.6221450000
C  1.3210830000  -0.3503500000  1.0265790000
C  -0.2718130000  1.3501550000  0.0217850000
H  1.7047830000  0.4785930000  1.6161000000
H  1.3497840000  -1.2527230000  1.6369390000
S  2.4608640000  -0.6694170000  -0.3626220000
O  0.6900200000  2.0582730000  -0.2115810000
H  2.3990560000  0.5765640000  -0.8636860000
N  -1.5486220000  1.7211330000  -0.1958580000
H  -2.3165520000  1.0932290000  0.0129660000
H  -1.7197930000  2.6250110000  -0.6065480000
C  -1.9121760000  -1.4206710000  -0.3830920000
H  -2.0946550000  -2.2560820000  -1.0757390000
O  -2.8151880000  -0.8639800000  0.2169960000
H  -0.7455220000  -0.0962020000  1.5184690000