20
charge=0, multiplicity=2, basis=def2-QZVPP, AUX_BASIS_CORR=rimp2-def2-QZVPPD, SCF_ALGORITHM=GDM, xc_grid=000099000590, mem_total=15000, num_basis=870, num_pairs=292420, num_threads=4
N  0.9623950000  -0.7332780000  0.0812270000
C  1.8881210000  -0.0130950000  -0.4977280000
C  3.3275380000  -0.3788120000  -0.3689420000
H  1.6485410000  0.8286550000  -1.1486450000
C  3.2513640000  0.6396040000  0.6946880000
H  3.9420120000  -0.1234730000  -1.2280940000
H  3.4740120000  -1.3998110000  -0.0306000000
H  3.4696440000  1.6786700000  0.4927330000
H  3.0017870000  0.3465130000  1.7029960000
C  -0.3632540000  -0.3079710000  0.0346350000
C  -1.3555850000  -1.2907170000  0.1262620000
C  -2.6951570000  -0.9476510000  0.0846010000
C  -3.0756760000  0.3859090000  -0.0205190000
C  -2.0993680000  1.3718830000  -0.0795580000
C  -0.7552020000  1.0345920000  -0.0531350000
H  -0.0055650000  1.8158360000  -0.0643500000
H  -4.1245250000  0.6549630000  -0.0416830000
H  -2.3870720000  2.4152080000  -0.1362160000
H  -1.0425920000  -2.3229720000  0.2202210000
H  -3.4496870000  -1.7230990000  0.1432340000