25
charge=0, multiplicity=1, basis=def2-QZVPP, mem_total=30000, AUX_BASIS_CORR=rimp2-def2-QZVPPD, SCF_ALGORITHM=GDM, xc_grid=000099000590, num_basis=1074, num_pairs=447522, num_threads=8
C  -1.5613480000  -1.5568710000  0.4347750000
C  -2.9767870000  -0.9674410000  0.3329920000
C  -2.7527330000  0.5500160000  0.2566570000
C  -1.4214270000  0.6631560000  -0.4566930000
C  -0.7119110000  -0.5462680000  -0.3121370000
H  -1.2340790000  -1.6113410000  1.4786600000
H  -1.4759130000  -2.5617410000  0.0173770000
H  -3.6187590000  -1.2646910000  1.1628040000
H  -3.4477900000  -1.3114980000  -0.5914210000
H  -3.5600520000  1.0736020000  -0.2567930000
H  -2.6690560000  0.9794530000  1.2619170000
C  0.6403010000  -0.6220370000  -0.4356680000
C  -0.8262530000  1.7993780000  -0.9138570000
H  0.0080910000  1.7532610000  -1.5947460000
H  -1.3118540000  2.7626690000  -0.8191610000
C  1.7345780000  -1.2056800000  -0.8763890000
H  1.7246340000  -1.9109120000  -1.7019050000
C  3.0365790000  -0.8022990000  -0.2398710000
H  3.6720430000  -0.2936930000  -0.9721210000
H  3.5960790000  -1.6723700000  0.1126230000
C  2.6816160000  0.1309490000  0.9185580000
H  2.4446840000  -0.4509540000  1.8118140000
H  3.4800000000  0.8297960000  1.1654910000
C  1.4513140000  0.8860110000  0.5259540000
N  0.9469140000  1.9578480000  0.5027920000