28
charge=0, multiplicity=2, basis=def2-QZVPP, AUX_BASIS_CORR=rimp2-def2-QZVPPD, SCF_ALGORITHM=GDM, xc_grid=000099000590, mem_total=30000, num_basis=1272, num_pairs=570445, num_threads=8
N  1.3281090000  -1.5405060000  0.2013430000
C  0.2768430000  -2.4024310000  0.7124400000
H  1.9204070000  -1.0389380000  0.8574350000
C  -1.0076000000  -1.6090230000  0.9496500000
H  0.1025250000  -3.2105300000  0.0006270000
H  0.5903810000  -2.8195960000  1.6657050000
O  -1.4111830000  -1.3392970000  2.0631270000
N  -1.6352900000  -1.2137380000  -0.1923830000
H  -1.1628030000  -1.3961290000  -1.0725130000
C  -2.7240270000  -0.2859590000  -0.1486050000
C  -2.3075630000  1.1477610000  -0.3975940000
H  -3.4924470000  -0.5419760000  -0.8815490000
H  -3.1869660000  -0.3321700000  0.8385550000
O  -1.1931400000  1.5405010000  -0.6250470000
O  -3.3677490000  1.9648000000  -0.3457270000
H  -3.0622890000  2.8673940000  -0.5129220000
C  1.3411440000  -1.1304310000  -1.0834890000
C  2.2870260000  0.0274940000  -1.3752200000
O  0.5954920000  -1.5855850000  -1.9422940000
N  1.8197510000  1.2353440000  -0.7203140000
H  2.3050850000  0.1801900000  -2.4517570000
H  3.2936430000  -0.1874700000  -1.0173740000
H  0.9629010000  1.6413910000  -1.0717450000
C  2.1101490000  1.4624030000  0.5968880000
C  1.4874240000  2.6236030000  1.1934580000
O  2.8594450000  0.7186750000  1.2335310000
H  0.7745830000  3.2271270000  0.6485920000
H  1.7236870000  2.8497500000  2.2225310000