51
charge=1, multiplicity=1, basis=def2-QZVPP, mem_total=120000, AUX_BASIS_CORR=rimp2-def2-QZVPPD, SCF_ALGORITHM=GDM, xc_grid=000099000590, num_basis=2070, num_pairs=1294555, num_threads=32
C  0.0363490000  -1.0637810000  -0.9215160000
C  -0.1301450000  -0.4504040000  1.6627880000
C  1.0740800000  0.4694730000  1.4383170000
C  1.9892460000  0.0006080000  0.3221740000
C  1.1968060000  -0.0731920000  -0.9782040000
H  0.7183320000  1.4789340000  1.2052000000
H  1.6211170000  0.5317620000  2.3815310000
H  2.3895330000  -0.9886150000  0.5499160000
H  0.8164980000  0.9249810000  -1.2183230000
H  1.8615970000  -0.3778290000  -1.7864760000
N  -0.7413710000  -0.8070760000  0.3378120000
O  -1.8602220000  -1.4329970000  0.4289290000
C  -0.8775020000  -0.8538450000  -2.1245470000
H  -0.2790240000  -0.9564000000  -3.0298270000
H  -1.6618660000  -1.6092550000  -2.1623510000
H  -1.3239350000  0.1395080000  -2.1178460000
C  0.5265700000  -2.5202710000  -0.9205800000
H  -0.3096230000  -3.2032490000  -0.7667900000
H  0.9752940000  -2.7376910000  -1.8902830000
H  1.2826170000  -2.7131790000  -0.1635180000
C  -1.1778120000  0.2851610000  2.4938300000
H  -2.0379630000  -0.3461890000  2.7156030000
H  -0.7299440000  0.5766310000  3.4439870000
H  -1.5066120000  1.1955980000  1.9936330000
C  0.2733590000  -1.7405200000  2.3906460000
H  0.5845630000  -1.4915680000  3.4062090000
H  -0.5732790000  -2.4246810000  2.4511000000
H  1.1002620000  -2.2534470000  1.9049710000
C  -3.7647440000  0.0855680000  -0.2064170000
H  -4.2312140000  0.2685610000  0.7663170000
H  -2.7602720000  -0.7746160000  0.2424660000
O  -3.0755190000  1.0870860000  -0.7084990000
C  -3.0327000000  2.3613840000  -0.0030580000
H  -3.1173490000  2.1682990000  1.0675400000
H  -3.9155170000  2.9121330000  -0.3322700000
C  -4.4568260000  -0.8131580000  -1.1720170000
H  -3.8588340000  -0.9620140000  -2.0690810000
H  -5.3999900000  -0.3366240000  -1.4650220000
C  -1.7625460000  3.0759900000  -0.3729970000
H  -1.7052780000  3.2307660000  -1.4505530000
H  -1.7434840000  4.0529330000  0.1124920000
H  -0.8868090000  2.5118540000  -0.0523370000
H  -4.6936130000  -1.7737160000  -0.7146100000
N  3.1341710000  0.8797300000  0.1998920000
C  4.2603480000  0.4497390000  -0.4460910000
C  5.4123480000  1.4170720000  -0.5029350000
H  6.2717130000  0.9613890000  -0.0100710000
H  5.6825360000  1.5786250000  -1.5465990000
H  5.1982590000  2.3773230000  -0.0330370000
O  4.3079960000  -0.6609810000  -0.9382050000
H  3.1036600000  1.8073910000  0.5899500000