46
charge=0, multiplicity=1, basis=def2-QZVPP, mem_total=120000, AUX_BASIS_CORR=rimp2-def2-QZVPPD, SCF_ALGORITHM=GDM, xc_grid=000099000590, num_basis=2001, num_pairs=1155437, num_threads=32
C  -0.0934610000  -2.3978500000  -0.5071600000
H  -0.1840470000  -3.0436790000  -1.3883250000
H  -0.0294590000  -3.0788310000  0.3672650000
C  -1.3362560000  -1.5757400000  -0.3750880000
C  0.0179800000  0.4510320000  0.0151140000
H  0.2980870000  1.0017940000  -0.8839620000
H  -0.0815090000  1.1900350000  0.8126640000
C  1.1319280000  -0.5376060000  0.3579380000
H  0.9166210000  -0.9682700000  1.3560690000
N  1.1040670000  -1.5984170000  -0.6423870000
C  -2.5835220000  0.4703400000  -0.0477620000
C  -2.6467590000  -2.3040340000  -0.4926670000
C  -3.7135340000  -0.1912150000  0.2257850000
C  -3.7265040000  -1.6824970000  0.3950620000
C  -1.2990060000  -0.2552440000  -0.1763050000
C  -3.5391070000  -2.0379190000  1.8766120000
H  -3.5984530000  -3.1194790000  2.0213770000
H  -2.5661940000  -1.6951220000  2.2345560000
H  -4.3090230000  -1.5696320000  2.4927160000
C  2.4827600000  0.1466570000  0.4435020000
C  2.3039890000  -2.4104060000  -0.6615710000
H  2.1466120000  -3.2388470000  -1.3559780000
H  2.5105470000  -2.8511650000  0.3313320000
C  3.4769380000  -1.5610140000  -1.1103330000
H  3.3282770000  -1.2808920000  -2.1576100000
C  3.5908070000  -0.3237630000  -0.2602440000
H  4.4053500000  -2.1351380000  -1.0546620000
C  4.8078490000  0.3463150000  -0.1482120000
H  5.6653000000  -0.0281370000  -0.6975710000
C  2.6307520000  1.2621720000  1.2680900000
H  1.7838050000  1.6198580000  1.8415390000
C  4.9400650000  1.4650200000  0.6550450000
H  5.8945580000  1.9717900000  0.7308460000
C  3.8430170000  1.9212060000  1.3750790000
H  3.9335790000  2.7860940000  2.0211300000
C  -2.7090520000  1.9451800000  -0.2170890000
O  -3.6197920000  2.6139390000  0.2033990000
O  -1.7038730000  2.4672050000  -0.9365280000
C  -1.7658300000  3.8764350000  -1.1649470000
H  -1.7765390000  4.4156730000  -0.2178740000
H  -2.6636430000  4.1311980000  -1.7278040000
H  -0.8734680000  4.1199710000  -1.7355870000
H  -2.5161540000  -3.3597880000  -0.2352440000
H  -2.9713580000  -2.2787680000  -1.5412210000
H  -4.7008960000  -2.0627680000  0.0770200000
H  -4.6294770000  0.3714600000  0.3659550000