43
charge=0, multiplicity=1, basis=def2-QZVPP, AUX_BASIS_CORR=rimp2-def2-QZVPPD, SCF_ALGORITHM=GDM, xc_grid=000099000590, mem_total=60000, num_basis=1830, num_pairs=1014136, num_threads=16
C  -0.7780800000  -1.8397270000  0.1413970000
H  -0.9113090000  -2.8605100000  -0.2194390000
H  -0.9646700000  -1.8544780000  1.2355920000
C  -1.7926770000  -0.9241850000  -0.5081520000
C  -0.0479280000  0.8378230000  -0.6562650000
H  0.3241140000  0.7379450000  -1.6807240000
H  0.0901400000  1.8750790000  -0.3696850000
C  0.8153350000  -0.0534360000  0.2410470000
H  0.4817120000  0.0973120000  1.2878590000
N  0.5865050000  -1.4404210000  -0.1415290000
C  -2.4946710000  1.4121350000  -0.3300440000
C  -3.0442760000  -1.4116700000  -0.8450610000
H  -3.4619270000  -1.0532620000  -1.7692020000
H  -3.2966050000  -2.4426280000  -0.6104900000
C  -3.7549010000  1.0951400000  0.1976430000
H  -4.0636980000  1.7616750000  1.0057620000
C  -4.5552150000  -0.0276340000  0.0047050000
C  -1.5074670000  0.4417280000  -0.5964700000
C  -5.5159880000  -0.4509020000  1.0862900000
H  -5.6671560000  -1.5320260000  1.0654450000
H  -5.1483980000  -0.1849460000  2.0785050000
H  -6.4990150000  0.0116010000  0.9456410000
H  -4.9164860000  -0.2338380000  -0.9864540000
C  2.2837930000  0.3280500000  0.1790800000
C  1.5526360000  -2.3531730000  0.4373390000
H  1.2370680000  -3.3747730000  0.2159750000
H  1.5933560000  -2.2545020000  1.5379750000
C  2.9173580000  -2.0814150000  -0.1645080000
H  2.8966680000  -2.3595770000  -1.2225530000
C  3.2797450000  -0.6269630000  -0.0250990000
H  3.6772120000  -2.6996030000  0.3206300000
C  4.6139920000  -0.2269110000  -0.0710140000
H  5.3810940000  -0.9776850000  -0.2296330000
C  2.6570030000  1.6590240000  0.3678610000
H  1.8975280000  2.4073450000  0.5599660000
C  4.9723800000  1.0992490000  0.0932520000
H  6.0149950000  1.3910700000  0.0556800000
C  3.9845550000  2.0481460000  0.3235180000
H  4.2484630000  3.0883780000  0.4714410000
C  -2.0925000000  2.8705840000  -0.2240110000
H  -1.3739000000  3.0522050000  0.5800000000
H  -2.9663510000  3.4936370000  -0.0375480000
H  -1.6369360000  3.2193630000  -1.1530750000