24
charge=0, multiplicity=2, basis=def2-QZVPP, mem_total=15000, AUX_BASIS_CORR=rimp2-def2-QZVPPD, SCF_ALGORITHM=GDM, xc_grid=000099000590, num_basis=1017, num_pairs=370485, num_threads=4
C  -4.1028890000  1.2248360000  0.2197590000
C  -3.5118540000  0.0771990000  0.5191500000
C  -2.8646960000  -0.8452320000  -0.4682220000
C  -0.5322330000  0.0931690000  -0.2246120000
C  -1.3911250000  -1.1235270000  -0.1481350000
H  -1.3215930000  -1.5716040000  0.8538020000
H  -1.0168230000  -1.8927370000  -0.8344030000
H  -2.9516060000  -0.4272600000  -1.4753690000
H  -3.4038220000  -1.7983610000  -0.4725510000
H  3.5025540000  2.2685490000  -0.1462850000
C  2.9718860000  1.3266360000  -0.0722200000
C  1.5989610000  1.3040580000  -0.1906870000
H  1.0527390000  2.2257680000  -0.3569340000
C  0.8717930000  0.0907020000  -0.0998170000
C  1.6148080000  -1.0952270000  0.1203330000
H  1.0968820000  -2.0426930000  0.1997320000
C  2.9904300000  -1.0609200000  0.2378810000
H  3.5361700000  -1.9819440000  0.4065790000
C  3.6813440000  0.1447880000  0.1427840000
H  4.7600620000  0.1646510000  0.2357390000
H  -1.0246130000  1.0493880000  -0.3656160000
H  -4.5553420000  1.8472160000  0.9822650000
H  -4.1589020000  1.5817080000  -0.8037630000
H  -3.4742640000  -0.2415730000  1.5595220000