43
charge=0, multiplicity=1, basis=def2-QZVPP, mem_total=120000, AUX_BASIS_CORR=rimp2-def2-QZVPPD, SCF_ALGORITHM=GDM, xc_grid=000099000590, num_basis=1965, num_pairs=1116846, num_threads=32
C  -5.2926030000  0.3588110000  -1.1468880000
C  -4.1850140000  0.9637080000  -1.7194170000
C  -2.9229140000  0.7856440000  -1.1725260000
C  -2.7375220000  -0.0062530000  -0.0331310000
C  -3.8644620000  -0.6149330000  0.5376890000
C  -5.1197640000  -0.4295740000  -0.0171070000
H  -6.2779960000  0.4989940000  -1.5742200000
H  -4.2971710000  1.5823330000  -2.6019980000
H  -2.0784580000  1.2696020000  -1.6433470000
H  -3.7494470000  -1.2282250000  1.4174760000
H  -5.9745290000  -0.9097210000  0.4446040000
C  -1.3907900000  -0.1889490000  0.5334980000
C  -1.0887880000  -1.0253220000  1.6795780000
O  -1.8537310000  -1.6249870000  2.3756880000
O  0.2764260000  -1.1434210000  1.9829010000
N  -0.3574020000  0.4515920000  -0.0081170000
N  -0.0192350000  1.2457420000  -0.8041420000
C  1.1676220000  -0.5138010000  1.1662200000
C  1.6709450000  0.7092470000  1.5923820000
H  1.4250910000  0.9973140000  2.6093260000
C  1.7986810000  -1.3966000000  0.1525410000
C  1.0392010000  -2.2936200000  -0.5979180000
C  3.1852600000  -1.3932350000  0.0032990000
C  1.6525900000  -3.1428390000  -1.5039710000
H  -0.0365940000  -2.3212660000  -0.4846420000
C  3.7980110000  -2.2469180000  -0.8994150000
H  3.7821100000  -0.7202560000  0.6051490000
C  3.0321470000  -3.1196090000  -1.6604250000
H  1.0502090000  -3.8271310000  -2.0883330000
H  4.8762730000  -2.2380070000  -1.0011250000
H  3.5097850000  -3.7875450000  -2.3668390000
C  2.0995320000  1.6899300000  0.7091870000
C  2.3417270000  3.1304530000  1.1072070000
C  1.9888120000  1.6004400000  -0.6777150000
C  1.9259490000  3.9213240000  -0.1444240000
H  3.4069340000  3.2715690000  1.3218270000
C  2.1758700000  2.9485710000  -1.3082120000
H  2.1576650000  0.6970940000  -1.2414030000
H  0.8593600000  4.1486120000  -0.0915470000
H  2.4634690000  4.8634770000  -0.2508810000
H  1.5008250000  3.0978850000  -2.1524850000
H  3.1999610000  3.0329610000  -1.6908390000
H  1.7904850000  3.4193780000  2.0036640000