39
charge=0, multiplicity=1, basis=def2-QZVPP, mem_total=60000, AUX_BASIS_CORR=rimp2-def2-QZVPPD, SCF_ALGORITHM=GDM, xc_grid=000099000590, num_basis=1561, num_pairs=893191, num_threads=16
C  -2.8465730000  -0.3780340000  -1.0461030000
C  -1.6895910000  0.6028420000  -1.3955940000
C  -0.4472440000  -0.6896570000  1.1535100000
H  -3.3118330000  -0.7082980000  -1.9783340000
C  -1.6522170000  1.8335030000  -0.4610390000
H  -0.7370100000  2.4066950000  -0.6460730000
H  -2.4772840000  2.4950120000  -0.7481600000
H  0.1631720000  -1.1745380000  1.9219290000
H  -1.8958830000  0.9952820000  -2.3952000000
H  0.1506900000  -0.4789690000  -2.4973430000
C  -1.7825860000  1.5618640000  1.0343470000
H  -1.8316910000  2.5254920000  1.5513530000
H  -2.7447400000  1.0810920000  1.2307390000
C  -0.6716460000  0.7394120000  1.6790130000
H  0.2671320000  1.2981580000  1.6189570000
H  -0.8995620000  0.6629970000  2.7477230000
C  -1.7657790000  -1.5031970000  1.0873700000
H  -1.5582210000  -2.5194830000  1.4362220000
C  -2.4483380000  -1.6473630000  -0.2788890000
H  -1.8004310000  -2.2505820000  -0.9258050000
H  -3.3483170000  -2.2536710000  -0.1355370000
H  -2.4764830000  -1.0871880000  1.8091070000
H  -3.6292320000  0.1579540000  -0.4997440000
C  0.3451760000  -0.7588610000  -0.1672060000
H  0.5906610000  -1.8112330000  -0.3849010000
Si  2.1254980000  -0.0654820000  -0.1150670000
C  2.2196390000  1.7653110000  -0.5436780000
H  1.6826640000  2.3926090000  0.1700890000
H  3.2620230000  2.0957200000  -0.5536460000
H  1.8063290000  1.9626830000  -1.5366610000
C  3.1485340000  -1.0101370000  -1.3753230000
H  4.1762000000  -0.6380420000  -1.3988170000
H  3.1879040000  -2.0760630000  -1.1367230000
H  2.7346190000  -0.9094020000  -2.3808410000
C  2.8591200000  -0.3400720000  1.5933350000
H  2.8348720000  -1.3978020000  1.8676220000
H  3.9038810000  -0.0179940000  1.6108050000
H  2.3283000000  0.2167170000  2.3680350000
B  -0.3491410000  -0.2208120000  -1.4364620000