32
charge=1, multiplicity=1, basis=def2-QZVPP, AUX_BASIS_CORR=rimp2-def2-QZVPPD, SCF_ALGORITHM=GDM, xc_grid=000099000590, mem_total=60000, num_basis=1419, num_pairs=678646, num_threads=16
C  -2.7987390000  1.3894270000  0.1424170000
C  -1.9149080000  2.4641550000  0.0730620000
C  -0.5984550000  2.2257840000  -0.2255580000
N  -0.1655710000  0.9680370000  -0.4417110000
C  -0.9941920000  -0.0723060000  -0.3860990000
C  -2.3369680000  0.1065270000  -0.0992410000
C  -3.1505340000  -1.1632360000  -0.0025550000
O  -2.5778740000  -2.2115330000  0.1949560000
N  -4.4895790000  -1.0388890000  -0.1195630000
C  1.3178730000  0.7503150000  -0.7112360000
C  2.1272670000  0.8702110000  0.5891940000
C  2.1901580000  -0.5922240000  1.0365850000
C  2.2422640000  -1.3615770000  -0.2840730000
O  1.5105100000  -0.5060720000  -1.2162240000
H  1.5986200000  1.5170230000  -1.4339930000
C  3.6237650000  -1.6429520000  -0.8286110000
H  1.6646420000  -2.2850700000  -0.2056000000
H  3.5444230000  -2.0935410000  -1.8177670000
H  4.1450830000  -2.3467540000  -0.1763550000
H  4.2111120000  -0.7285650000  -0.9056400000
O  0.9684060000  -0.8036190000  1.7251770000
H  3.0575490000  -0.7920960000  1.6701950000
O  3.3665570000  1.4095660000  0.2104470000
H  1.6226220000  1.4756800000  1.3461180000
H  3.9099500000  1.5800330000  0.9859910000
H  0.9342680000  -1.6907360000  2.0962740000
H  -5.0370420000  -1.8863100000  -0.0791780000
H  -4.9345070000  -0.2117900000  -0.4796150000
H  -0.5788790000  -1.0506260000  -0.5672820000
H  0.1424370000  3.0110310000  -0.3005350000
H  -2.2458880000  3.4772620000  0.2537770000
H  -3.8343210000  1.5689520000  0.4043760000