28
charge=0, multiplicity=1, basis=def2-QZVPP, mem_total=30000, AUX_BASIS_CORR=rimp2-def2-QZVPPD, SCF_ALGORITHM=GDM, xc_grid=000099000590, num_basis=1272, num_pairs=614514, num_threads=8
C  -0.8035760000  -0.0650990000  -1.2824170000
C  -0.0642660000  -0.0947360000  0.0380040000
C  -0.6552020000  0.2034590000  1.1901430000
C  -2.1249000000  0.5738300000  1.2112910000
C  -2.9146350000  -0.7019410000  0.9297610000
C  -3.0037540000  -0.8767900000  -0.3837190000
C  -2.3020940000  0.2601080000  -1.1031890000
H  -0.3567790000  0.6959110000  -1.9304980000
H  -0.6818310000  -1.0255420000  -1.7957290000
H  -2.7420640000  0.5049600000  -2.0706990000
C  -2.4257340000  1.3811590000  -0.0605040000
H  -3.4280590000  -1.7373160000  -0.8851180000
H  -3.2447800000  -1.3898790000  1.6970270000
C  1.4046180000  -0.5206500000  -0.0333780000
H  -3.4438700000  1.7722050000  -0.0360020000
H  -1.7248390000  2.2027570000  -0.2182620000
H  -2.3932690000  1.0761230000  2.1397590000
C  2.2287750000  0.3677930000  -1.0239920000
C  2.0496930000  -0.4674580000  1.2864330000
C  1.4792090000  -1.9100590000  -0.5241860000
N  2.5710520000  -0.4115110000  2.3047170000
N  1.5193970000  -2.9725730000  -0.9515860000
C  2.1393400000  1.7818150000  -0.7002210000
C  2.0559220000  2.9416450000  -0.4250250000
H  -0.1121660000  0.1540890000  2.1266080000
H  3.2690160000  0.0376600000  -1.0043160000
H  1.8536130000  0.1857890000  -2.0319560000
H  1.9915070000  3.9733730000  -0.1767340000