59
charge=1, multiplicity=1, basis=def2-QZVPP, mem_total=240000, AUX_BASIS_CORR=rimp2-def2-QZVPPD, SCF_ALGORITHM=GDM, xc_grid=000099000590, num_basis=2472, num_pairs=1588014, num_threads=64
C  2.1273140000  1.2808930000  0.5512730000
C  0.7276120000  -0.7720220000  -0.3350360000
C  2.1087230000  -1.4336690000  -0.3864380000
C  3.1447690000  -0.5571970000  -1.0817250000
C  3.1161110000  0.9059900000  -0.5741650000
H  2.4367850000  -1.6664710000  0.6258110000
H  2.0133850000  -2.3782700000  -0.9252410000
H  2.8856730000  -0.5303990000  -2.1400890000
H  4.1072270000  1.1764100000  -0.2134090000
H  2.9145640000  1.5537890000  -1.4299280000
N  0.8810490000  0.4692350000  0.4566900000
O  -0.0934540000  0.8363370000  1.1916070000
C  2.7113480000  1.0560590000  1.9521380000
H  3.0710820000  0.0389350000  2.0799750000
H  3.5647770000  1.7216130000  2.0925940000
H  1.9615120000  1.2906630000  2.7084360000
C  1.7514910000  2.7539510000  0.3855670000
H  1.2507430000  2.9233590000  -0.5694700000
H  1.1161530000  3.0978760000  1.2019410000
H  2.6628660000  3.3523020000  0.4000050000
C  -0.2583780000  -1.7017460000  0.3651710000
H  0.0693700000  -1.9247510000  1.3809890000
H  -1.2604750000  -1.2792940000  0.4091730000
H  -0.3085010000  -2.6363310000  -0.1943930000
C  0.2061920000  -0.4066650000  -1.7346680000
H  -0.8015000000  0.0001990000  -1.6678280000
H  0.8338120000  0.3329700000  -2.2317240000
H  0.1726100000  -1.3040730000  -2.3555170000
C  -2.0320840000  2.1144950000  0.1608440000
H  -2.0854110000  2.8592330000  0.9599100000
H  -0.9207490000  1.4841830000  0.6633340000
C  -2.9618240000  1.0132130000  0.2085950000
C  -3.4180170000  0.3817860000  -0.9542580000
C  -3.3680090000  0.5127630000  1.4616280000
C  -4.2605110000  -0.7081380000  -0.8821090000
H  -3.1239380000  0.7726360000  -1.9194710000
C  -4.1978990000  -0.5732390000  1.5425830000
H  -3.0191910000  0.9889410000  2.3709450000
C  -4.6518940000  -1.1990530000  0.3701520000
H  -4.6180840000  -1.1665470000  -1.7924750000
H  -4.5250690000  -0.9684590000  2.4949810000
O  -1.6678210000  2.5734260000  -1.0443420000
C  -1.3555340000  3.9698250000  -1.1372400000
H  -0.6944020000  4.2724760000  -0.3242130000
H  -2.2789500000  4.5500670000  -1.1081200000
H  -0.8591290000  4.1125190000  -2.0929360000
O  -5.4572310000  -2.2453350000  0.5496000000
C  -5.9845590000  -2.9330610000  -0.5811520000
H  -5.1815040000  -3.3631100000  -1.1838090000
H  -6.6031770000  -3.7290190000  -0.1773510000
H  -6.5981140000  -2.2654220000  -1.1897650000
N  4.4737020000  -1.1554460000  -1.0627400000
C  5.1769370000  -1.4207140000  0.0727410000
C  6.5387590000  -2.0363310000  -0.1157200000
H  6.5627810000  -2.9917520000  0.4091090000
H  6.8078340000  -2.1941150000  -1.1601170000
H  7.2802770000  -1.3883410000  0.3523060000
O  4.7259560000  -1.1703390000  1.1764850000
H  4.9006030000  -1.3738900000  -1.9471760000