22
charge=0, multiplicity=2, basis=def2-QZVPP, mem_total=15000, AUX_BASIS_CORR=rimp2-def2-QZVPPD, SCF_ALGORITHM=GDM, xc_grid=000099000590, num_basis=916, num_pairs=330915, num_threads=4
C  2.4647430000  -0.8131570000  0.2844730000
C  2.5116440000  0.5044050000  0.6056270000
C  1.6741530000  1.1781780000  -0.3235020000
C  1.1013710000  0.1970110000  -1.1104200000
H  1.4804650000  2.2362120000  -0.3881900000
H  3.0833630000  0.9415460000  1.4082800000
H  2.9324150000  -1.6906580000  0.6963290000
O  1.6628490000  -1.0139660000  -0.7934400000
H  0.6657990000  0.2579630000  -2.0930670000
Si  -1.2954100000  -0.0406900000  0.0063000000
C  -1.9479470000  1.7214930000  -0.1451660000
H  -2.8666640000  1.8477700000  0.4371580000
H  -1.2187230000  2.4440760000  0.2279310000
H  -2.1771330000  1.9796220000  -1.1818980000
C  -2.5891540000  -1.2580700000  -0.6326530000
H  -3.5067600000  -1.1971670000  -0.0365190000
H  -2.8544240000  -1.0520630000  -1.6719980000
H  -2.2245650000  -2.2860410000  -0.5785780000
C  -0.8900910000  -0.4163140000  1.8046880000
H  -0.5426480000  -1.4439000000  1.9282370000
H  -0.1090120000  0.2470750000  2.1797550000
H  -1.7774700000  -0.2843300000  2.4335940000