28
charge=0, multiplicity=1, basis=def2-QZVPP, mem_total=30000, AUX_BASIS_CORR=rimp2-def2-QZVPPD, SCF_ALGORITHM=GDM, xc_grid=000099000590, num_basis=1272, num_pairs=563874, num_threads=8
C  -0.2073720000  1.8764580000  -0.7911560000
C  0.0394830000  1.8649400000  0.6011550000
C  -0.1241080000  3.0520470000  1.3019450000
C  -0.5045540000  4.2225750000  0.6559500000
C  -0.7293860000  4.2233040000  -0.7133610000
C  -0.5835380000  3.0501940000  -1.4370130000
H  0.0579670000  3.0641370000  2.3708490000
H  -0.6209870000  5.1370190000  1.2249890000
H  -1.0225300000  5.1361570000  -1.2170000000
H  -0.7653850000  3.0331810000  -2.5041640000
C  -0.0791580000  0.5969690000  -1.4025070000
C  0.0791580000  -0.5969690000  -1.4025070000
C  0.2073720000  -1.8764580000  -0.7911560000
C  0.5835380000  -3.0501940000  -1.4370130000
C  -0.0394830000  -1.8649400000  0.6011550000
C  0.7293860000  -4.2233040000  -0.7133610000
H  0.7653850000  -3.0331810000  -2.5041640000
C  0.1241080000  -3.0520470000  1.3019450000
C  0.5045540000  -4.2225750000  0.6559500000
H  1.0225300000  -5.1361570000  -1.2170000000
H  -0.0579670000  -3.0641370000  2.3708490000
H  0.6209870000  -5.1370190000  1.2249890000
C  -0.5045540000  -0.5988350000  1.2848730000
H  -1.4327850000  -0.2738210000  0.8086460000
H  -0.7585280000  -0.8433710000  2.3173650000
C  0.5045540000  0.5988350000  1.2848730000
H  1.4327850000  0.2738210000  0.8086460000
H  0.7585280000  0.8433710000  2.3173650000