5
charge=0, multiplicity=2, basis=def2-QZVPP, AUX_BASIS_CORR=rimp2-def2-QZVPPD, SCF_ALGORITHM=GDM, xc_grid=000099000590, mem_total=3750, num_basis=298, num_pairs=43483, num_threads=1
S  -1.4800090000  -0.0403940000  0.0000460000
C  0.3235170000  -0.0041190000  0.0000040000
F  0.7169750000  1.2755750000  -0.0001070000
F  0.8491550000  -0.6005810000  -1.0738440000
F  0.8493200000  -0.6004370000  1.0738680000