36
charge=1, multiplicity=1, basis=def2-QZVPP, AUX_BASIS_CORR=rimp2-def2-QZVPPD, SCF_ALGORITHM=GDM, xc_grid=000099000590, mem_total=60000, num_basis=1485, num_pairs=778362, num_threads=16
C  -1.2038060000  -1.3506090000  0.0411360000
C  -1.2038340000  1.3505970000  0.0411390000
C  0.3218550000  1.2485480000  0.1116620000
C  0.8480640000  0.0000140000  0.8188950000
C  0.3218810000  -1.2485290000  0.1116590000
H  0.7355900000  1.2682980000  -0.8969350000
H  0.6725840000  2.1455810000  0.6252960000
H  0.5172490000  0.0000090000  1.8595100000
H  0.7356150000  -1.2682680000  -0.8969380000
H  0.6726270000  -2.1455560000  0.6252910000
N  -1.7704380000  -0.0000110000  -0.4009050000
O  -2.7237480000  -0.0000200000  -1.0929180000
C  -1.6368170000  -2.3839490000  -0.9893810000
H  -1.1503280000  -3.3245670000  -0.7308340000
H  -2.7134580000  -2.5441520000  -0.9894550000
H  -1.3164190000  -2.1052860000  -1.9939650000
C  -1.8518130000  -1.6569490000  1.4033130000
H  -2.9375850000  -1.5648730000  1.3586300000
H  -1.6138240000  -2.6958370000  1.6328840000
H  -1.4708420000  -1.0399930000  2.2123780000
C  -1.6368650000  2.3839300000  -0.9893770000
H  -2.7135100000  2.5441120000  -0.9894500000
H  -1.1503950000  3.3245570000  -0.7308280000
H  -1.3164610000  2.1052750000  -1.9939610000
C  -1.8518470000  1.6569220000  1.4033160000
H  -1.6138800000  2.6958150000  1.6328890000
H  -2.9376170000  1.5648230000  1.3586320000
H  -1.4708640000  1.0399720000  2.2123800000
N  2.3011200000  0.0000320000  0.8722240000
C  3.0929680000  0.0000360000  -0.2453630000
C  4.5777510000  -0.0000270000  -0.0062900000
H  5.0061770000  -0.8787960000  -0.4890740000
H  5.0064130000  0.8780840000  -0.4900440000
H  4.8521860000  0.0004990000  1.0483390000
O  2.6090930000  0.0000480000  -1.3626090000
H  2.7439920000  0.0000350000  1.7759920000