22
charge=0, multiplicity=1, basis=def2-QZVPP, AUX_BASIS_CORR=rimp2-def2-QZVPPD, SCF_ALGORITHM=GDM, xc_grid=000099000590, mem_total=15000, num_basis=984, num_pairs=379212, num_threads=4
C  2.6638360000  -0.7032860000  0.0000150000
C  1.4817550000  -1.3966160000  0.0000080000
C  0.2547550000  -0.7018250000  0.0000020000
C  0.2547550000  0.7018250000  0.0000020000
C  1.4817550000  1.3966160000  0.0000080000
C  2.6638360000  0.7032860000  0.0000150000
H  3.6057130000  -1.2382040000  0.0000200000
H  1.4869400000  -2.4785630000  0.0000080000
C  -1.0230040000  -1.3487840000  -0.0000050000
C  -1.0230040000  1.3487840000  -0.0000050000
H  1.4869400000  2.4785630000  0.0000080000
H  3.6057130000  1.2382040000  0.0000200000
N  -2.1397680000  -0.6781300000  -0.0000120000
N  -2.1397680000  0.6781300000  -0.0000120000
C  -1.1416470000  2.8433630000  -0.0000080000
H  -0.6662320000  3.2787860000  0.8824330000
H  -0.6662160000  3.2787850000  -0.8824390000
H  -2.1960030000  3.1102340000  -0.0000170000
C  -1.1416470000  -2.8433630000  -0.0000080000
H  -0.6662160000  -3.2787850000  -0.8824390000
H  -0.6662320000  -3.2787860000  0.8824330000
H  -2.1960030000  -3.1102340000  -0.0000170000