10
charge=0, multiplicity=2, basis=def2-QZVPP, AUX_BASIS_CORR=rimp2-def2-QZVPPD, SCF_ALGORITHM=GDM, xc_grid=000099000590, mem_total=3750, num_basis=435, num_pairs=88146, num_threads=1
H  1.7544280000  -1.5254840000  0.2316710000
N  1.7021140000  -0.5596090000  -0.0458780000
C  0.4947960000  0.1037660000  -0.0086430000
C  -0.6966610000  -0.7015100000  -0.0174340000
O  0.4339310000  1.3324310000  -0.0052240000
N  -1.8822360000  -0.0456390000  0.0604610000
H  -0.6958380000  -1.7808510000  -0.0590260000
H  -1.8297350000  0.9617530000  -0.0192480000
H  -2.7434870000  -0.5008970000  -0.1854730000
H  2.5152240000  0.0092290000  0.1282520000