9
charge=0, multiplicity=1, basis=def2-QZVPP, mem_total=3750, AUX_BASIS_CORR=rimp2-def2-QZVPPD, SCF_ALGORITHM=GDM, xc_grid=000099000590, num_basis=405, num_pairs=80576, num_threads=1
C  1.0903670000  -0.3458430000  -0.0000150000
C  0.7164510000  0.9530130000  0.0000060000
C  -0.7164530000  0.9530100000  0.0000020000
C  -1.0903680000  -0.3458450000  -0.0000120000
H  -1.3725630000  1.8078940000  0.0000050000
H  1.3725570000  1.8078980000  0.0000100000
H  2.0448270000  -0.8432330000  -0.0000180000
O  0.0000030000  -1.1519160000  0.0000170000
H  -2.0448230000  -0.8432450000  -0.0000160000