35
charge=0, multiplicity=1, basis=def2-QZVPP, mem_total=60000, AUX_BASIS_CORR=rimp2-def2-QZVPPD, SCF_ALGORITHM=GDM, xc_grid=000099000590, num_basis=1482, num_pairs=786890, num_threads=16
C  0.6842510000  0.8662760000  1.2554970000
N  0.0168310000  -0.2806030000  0.6206930000
C  0.3124340000  -1.5938600000  1.2268380000
C  1.1781740000  -2.5710410000  0.3826840000
C  2.4460520000  -1.8566580000  0.0613120000
C  2.3050090000  1.2996240000  -1.2034130000
C  2.0499470000  2.4770090000  -0.3261210000
C  0.7268000000  2.1769410000  0.4285380000
C  2.5253900000  -1.0577000000  -1.0031220000
C  3.0747480000  0.2785620000  -0.8250330000
C  -1.3195980000  -0.1159090000  0.2118630000
C  -2.1203960000  0.9495030000  0.6343600000
C  -3.4364200000  1.0627770000  0.2058460000
C  -3.9937410000  0.1160430000  -0.6385900000
C  -3.2099640000  -0.9533690000  -1.0545660000
C  -1.8932520000  -1.0648150000  -0.6438590000
H  0.2246780000  1.0758390000  2.2336570000
H  1.7065030000  0.5501230000  1.4637160000
H  0.8317070000  -1.4181890000  2.1746400000
H  -0.6294400000  -2.0871040000  1.4796600000
H  1.3228400000  -3.4792460000  0.9760290000
H  0.6457810000  -2.8482960000  -0.5294770000
H  1.9235390000  3.4136690000  -0.8768290000
H  2.8690970000  2.6157010000  0.3853420000
H  0.5161390000  3.0158190000  1.0985110000
H  -0.0809940000  2.1682070000  -0.3036980000
H  -1.7260570000  1.6939740000  1.3113600000
H  -4.0324520000  1.9000680000  0.5500330000
H  -5.0207420000  0.2079030000  -0.9687280000
H  -3.6236600000  -1.7032900000  -1.7186730000
H  -1.2894830000  -1.8886070000  -1.0008140000
H  1.8148280000  -1.1875040000  -1.8150050000
H  3.1119990000  -1.6692410000  0.9024650000
H  3.8050740000  0.4170850000  -0.0311590000
H  1.5362210000  1.1070140000  -1.9492790000