32
charge=0, multiplicity=1, basis=def2-QZVPP, AUX_BASIS_CORR=rimp2-def2-QZVPPD, SCF_ALGORITHM=GDM, xc_grid=000099000590, mem_total=60000, num_basis=1446, num_pairs=757987, num_threads=16
C  3.3115220000  0.6938590000  -1.1806340000
C  2.2628750000  1.3975280000  -0.5968390000
C  1.2114320000  0.6964770000  -0.0339690000
C  1.2114320000  -0.6964770000  -0.0339690000
C  2.2628750000  -1.3975280000  -0.5968390000
C  3.3115220000  -0.6938590000  -1.1806340000
H  4.1340060000  1.2338810000  -1.6335690000
H  2.2730130000  2.4801380000  -0.5902130000
C  0.0000000000  1.2793010000  0.6553850000
C  0.0000000000  -1.2793010000  0.6553850000
H  2.2730130000  -2.4801380000  -0.5902130000
H  4.1340060000  -1.2338810000  -1.6335690000
N  0.0000000000  0.6077950000  2.0471390000
N  0.0000000000  -0.6077950000  2.0471390000
C  0.0000000000  -2.7739270000  0.8603790000
H  0.0000000000  -3.3034060000  -0.0937290000
H  0.8815780000  -3.0744350000  1.4270240000
H  -0.8815780000  -3.0744350000  1.4270240000
C  0.0000000000  2.7739270000  0.8603790000
H  0.8815780000  3.0744350000  1.4270240000
H  0.0000000000  3.3034060000  -0.0937290000
H  -0.8815780000  3.0744350000  1.4270240000
C  -3.3115220000  0.6938590000  -1.1806340000
C  -2.2628750000  1.3975280000  -0.5968390000
C  -1.2114320000  0.6964770000  -0.0339690000
C  -1.2114320000  -0.6964770000  -0.0339690000
C  -2.2628750000  -1.3975280000  -0.5968390000
C  -3.3115220000  -0.6938590000  -1.1806340000
H  -4.1340060000  1.2338810000  -1.6335690000
H  -2.2730130000  2.4801380000  -0.5902130000
H  -4.1340060000  -1.2338810000  -1.6335690000
H  -2.2730130000  -2.4801380000  -0.5902130000