26
charge=-1, multiplicity=1, basis=def2-QZVPP, AUX_BASIS_CORR=rimp2-def2-QZVPPD, SCF_ALGORITHM=GDM, xc_grid=000099000590, mem_total=30000, num_basis=1158, num_pairs=498427, num_threads=8
C  1.0112170000  0.9251450000  -0.8182370000
C  2.3024860000  0.9843590000  0.0191780000
C  2.9985060000  -0.2948510000  0.2717340000
C  2.3695650000  -1.5630180000  -0.3352640000
C  0.9033580000  -1.5163310000  -0.6215080000
C  0.2580910000  -0.3730560000  -0.8331190000
H  0.3509750000  -2.4542920000  -0.6353450000
C  -1.2329910000  -0.3310570000  -1.0074980000
C  -1.9199840000  0.4061620000  0.1638000000
H  -1.6217550000  -1.3523130000  -1.0656040000
H  -1.5236320000  0.1829800000  -1.9272590000
C  -3.4285970000  0.1961530000  0.0429780000
O  -4.1083940000  0.7084020000  -0.8057510000
O  -3.9169340000  -0.6474730000  0.9540140000
N  -1.4608430000  -0.1124120000  1.4544140000
H  -1.7356200000  1.4776030000  0.0596510000
O  4.1455160000  -0.3983410000  0.7395560000
O  2.7720630000  2.1104350000  0.2499490000
H  1.8616310000  0.1106090000  1.2139790000
H  -3.1333030000  -0.8629960000  1.5185590000
H  -0.5307770000  -0.5182530000  1.3623720000
H  -1.3810870000  0.6303160000  2.1387950000
H  2.9316430000  -1.7640230000  -1.2580700000
H  2.6083200000  -2.3874920000  0.3397640000
H  1.3055650000  1.1861360000  -1.8443820000
H  0.3860270000  1.7533980000  -0.4778850000