45
charge=0, multiplicity=2, basis=def2-QZVPP, mem_total=120000, AUX_BASIS_CORR=rimp2-def2-QZVPPD, SCF_ALGORITHM=GDM, xc_grid=000099000590, num_basis=2025, num_pairs=1258232, num_threads=32
N  -2.6910200000  -0.8773960000  -0.3913840000
C  -2.2027180000  -0.6897450000  0.8340360000
C  -2.3006020000  -1.9410450000  -1.1932010000
O  -2.3107900000  -3.0933970000  -0.8137870000
C  -1.9805550000  -1.5502240000  -2.6188070000
C  -1.0235750000  -0.3560920000  -2.7178050000
H  -2.9265180000  -1.3030850000  -3.1092540000
H  -1.5703700000  -2.4340590000  -3.1094220000
C  0.2794350000  -0.6535520000  -2.0382490000
H  -1.4936620000  0.5265540000  -2.2850830000
H  -0.8570080000  -0.1418590000  -3.7788880000
C  0.9209080000  0.0999470000  -1.1380620000
C  2.1339410000  -0.4126160000  -0.4473390000
C  2.2578430000  -1.7609650000  -0.1072230000
C  3.1814960000  0.4496150000  -0.1186610000
C  4.3236780000  -0.0242390000  0.5084320000
C  3.3986490000  -2.2363160000  0.5213270000
C  4.4377670000  -1.3695850000  0.8313870000
H  1.4455380000  -2.4429180000  -0.3256540000
H  3.4713400000  -3.2863740000  0.7787300000
H  3.1001370000  1.5013570000  -0.3633910000
H  5.1286940000  0.6611090000  0.7456280000
H  5.3276410000  -1.7390400000  1.3264790000
C  0.4710510000  1.4714910000  -0.7773570000
C  0.2941730000  1.8270220000  0.5595310000
C  0.2307320000  2.4315520000  -1.7587850000
C  -0.1405940000  3.0966890000  0.9033530000
C  -0.3886530000  4.0419020000  -0.0836120000
C  -0.1964170000  3.7069460000  -1.4163040000
H  0.3934200000  2.1774460000  -2.7991130000
H  -0.7237120000  5.0364530000  0.1853240000
H  -0.3745400000  4.4412680000  -2.1928110000
H  0.4921500000  1.0967150000  1.3332330000
H  -0.2868370000  3.3488950000  1.9468530000
C  -1.1252270000  -1.4332880000  1.4010800000
C  -0.6707990000  -1.1385430000  2.6640550000
C  -1.2598340000  -0.1136560000  3.4104720000
C  -2.7811930000  0.3527470000  1.6125430000
C  -2.3162910000  0.6278390000  2.8762330000
H  -0.6803040000  -2.2333800000  0.8294710000
H  0.1534900000  -1.7035860000  3.0815680000
H  -3.5901970000  0.9165780000  1.1668410000
H  -2.7660870000  1.4232800000  3.4575400000
H  -0.8929330000  0.1073230000  4.4054070000
H  0.7139320000  -1.6190480000  -2.2857420000