17
charge=0, multiplicity=1, basis=def2-QZVPP, AUX_BASIS_CORR=rimp2-def2-QZVPPD, SCF_ALGORITHM=GDM, xc_grid=000099000590, mem_total=7500, num_basis=753, num_pairs=235137, num_threads=2
C  -2.7218670000  0.7857410000  0.0000300000
C  -1.6121200000  0.1256000000  -0.0000240000
C  -2.8567800000  -0.7118650000  0.0000090000
H  -3.2553870000  1.7187910000  0.0000280000
C  -0.1698730000  0.0625850000  -0.0000190000
C  0.5981250000  1.2301630000  -0.0000440000
C  0.4735810000  -1.1744430000  0.0000170000
C  1.9800050000  1.1573360000  -0.0000270000
H  0.0994930000  2.1920180000  -0.0000750000
C  1.8588870000  -1.2450100000  0.0000360000
H  -0.1246480000  -2.0775460000  0.0000320000
C  2.6141960000  -0.0808090000  0.0000130000
H  2.5683060000  2.0670290000  -0.0000460000
H  2.3498750000  -2.2106240000  0.0000660000
H  3.6961040000  -0.1354320000  0.0000270000
H  -3.1593470000  -1.2250090000  -0.9132260000
H  -3.1593160000  -1.2250170000  0.9132500000