16
charge=-1, multiplicity=1, basis=def2-QZVPP, AUX_BASIS_CORR=rimp2-def2-QZVPPD, SCF_ALGORITHM=GDM, xc_grid=000099000590, mem_total=7500, num_basis=723, num_pairs=227884, num_threads=2
O  0.7293330000  1.7338650000  0.5539820000
C  0.5321550000  0.7330950000  -0.1718790000
C  1.5162900000  -0.3551620000  -0.2970990000
O  2.6418780000  -0.0897270000  0.4813910000
O  1.3034920000  -1.5279050000  -0.6811430000
C  -0.7856150000  0.5345770000  -0.8950090000
H  1.5725120000  0.5599550000  -1.3538280000
C  -1.8486690000  -0.0742710000  -0.0037790000
H  -0.6374050000  -0.1777880000  -1.7120960000
H  -1.1624430000  1.4768690000  -1.2918690000
O  -3.0237580000  0.1871070000  -0.1553510000
H  2.4517630000  0.7789980000  0.8772720000
C  -1.3702200000  -1.0491430000  1.0358550000
H  -0.8500790000  -0.4898240000  1.8193940000
H  -2.2163740000  -1.5841560000  1.4652830000
H  -0.6291740000  -1.7253460000  0.5962770000