29
charge=1, multiplicity=1, basis=def2-QZVPP, mem_total=30000, AUX_BASIS_CORR=rimp2-def2-QZVPPD, SCF_ALGORITHM=GDM, xc_grid=000099000590, num_basis=1248, num_pairs=551521, num_threads=8
C  2.8469170000  -0.6630310000  1.1956540000
C  2.2273350000  -1.0987690000  -0.1418770000
C  2.6098280000  1.0532180000  -0.4752610000
C  3.1214520000  0.8503310000  0.9570140000
H  2.1788580000  -0.8533310000  2.0350010000
H  3.7641460000  -1.2266300000  1.3658670000
H  2.5924550000  1.4924670000  1.6585370000
H  4.1842420000  1.0816990000  1.0183300000
C  2.9940690000  -0.2622420000  -1.1629210000
H  2.6213970000  -0.3583610000  -2.1831780000
H  4.0630490000  -0.4663530000  -1.1378980000
H  2.1075260000  -2.1649760000  -0.3110250000
H  2.8922620000  1.9852760000  -0.9561690000
N  1.1267250000  0.9592720000  -0.4091530000
N  0.8973930000  -0.4166690000  -0.2162530000
C  -0.2509990000  -0.9750770000  -0.0469540000
C  -1.5622900000  -0.3835990000  -0.0126270000
C  -2.6381320000  -1.2865300000  -0.0332740000
C  -1.8203920000  0.9946240000  0.0797180000
C  -3.9391540000  -0.8266690000  0.0119790000
H  -2.4454300000  -2.3518010000  -0.0875420000
C  -3.1257940000  1.4419770000  0.1439560000
H  -1.0073120000  1.7020270000  0.1387860000
C  -4.1825890000  0.5385580000  0.1002630000
H  -4.7630300000  -1.5277290000  -0.0129310000
H  -3.3246800000  2.5025190000  0.2279680000
H  -5.2020180000  0.9017760000  0.1417210000
H  0.6821570000  1.2409540000  -1.2818920000
H  -0.1939490000  -2.0525030000  0.0682530000