36
charge=1, multiplicity=1, basis=def2-QZVPP, AUX_BASIS_CORR=rimp2-def2-QZVPPD, SCF_ALGORITHM=GDM, xc_grid=000099000590, mem_total=60000, num_basis=1485, num_pairs=778362, num_threads=16
C  -1.2038110000  -1.3506020000  0.0411390000
C  -1.2038290000  1.3505960000  0.0411370000
C  0.3218600000  1.2485430000  0.1116550000
C  0.8480660000  0.0000110000  0.8188960000
C  0.3218770000  -1.2485290000  0.1116570000
H  0.7355920000  1.2682820000  -0.8969420000
H  0.6725910000  2.1455790000  0.6252820000
H  0.5172470000  0.0000080000  1.8595090000
H  0.7356080000  -1.2682630000  -0.8969410000
H  0.6726210000  -2.1455600000  0.6252840000
N  -1.7704350000  -0.0000070000  -0.4009080000
O  -2.7237400000  -0.0000140000  -1.0929300000
C  -1.6368280000  -2.3839510000  -0.9893690000
H  -1.1503230000  -3.3245620000  -0.7308280000
H  -2.7134680000  -2.5441630000  -0.9894250000
H  -1.3164500000  -2.1052850000  -1.9939580000
C  -1.8518160000  -1.6569330000  1.4033190000
H  -2.9375880000  -1.5648540000  1.3586350000
H  -1.6138310000  -2.6958210000  1.6328930000
H  -1.4708430000  -1.0399740000  2.2123800000
C  -1.6368590000  2.3839360000  -0.9893750000
H  -2.7135020000  2.5441330000  -0.9894330000
H  -1.1503670000  3.3245540000  -0.7308370000
H  -1.3164770000  2.1052710000  -1.9939630000
C  -1.8518390000  1.6569210000  1.4033150000
H  -1.6138690000  2.6958140000  1.6328860000
H  -2.9376100000  1.5648270000  1.3586310000
H  -1.4708590000  1.0399700000  2.2123780000
N  2.3011190000  0.0000180000  0.8722270000
C  3.0929650000  0.0000160000  -0.2453590000
C  4.5777490000  -0.0000060000  -0.0062960000
H  5.0062230000  -0.8786450000  -0.4892710000
H  5.0063510000  0.8782360000  -0.4898690000
H  4.8521970000  0.0003200000  1.0483300000
O  2.6090870000  0.0000130000  -1.3626050000
H  2.7439930000  0.0000490000  1.7759940000