20
charge=0, multiplicity=2, basis=def2-QZVPP, AUX_BASIS_CORR=rimp2-def2-QZVPPD, SCF_ALGORITHM=GDM, xc_grid=000099000590, mem_total=15000, num_basis=843, num_pairs=290726, num_threads=4
C  1.6076920000  0.0000000000  -0.0000440000
C  2.3675260000  -1.2901330000  -0.0000550000
C  0.1849410000  0.0000000000  -0.0000090000
C  2.3675250000  1.2901340000  -0.0000490000
H  2.1324470000  -1.9025810000  -0.8781450000
H  2.1325480000  -1.9025360000  0.8780940000
H  3.4429130000  -1.1145630000  -0.0001210000
C  -0.5580690000  -1.2062290000  0.0000110000
C  -0.5580690000  1.2062290000  0.0000100000
H  2.1325340000  1.9025390000  0.8780940000
H  2.1324570000  1.9025770000  -0.8781450000
H  3.4429120000  1.1145640000  -0.0001000000
C  -1.9388710000  1.2006350000  0.0000450000
C  -2.6439960000  0.0000000000  0.0000630000
C  -1.9388710000  -1.2006350000  0.0000460000
H  -0.0376550000  -2.1546770000  0.0000010000
H  -2.4762230000  -2.1418630000  0.0000610000
H  -0.0376540000  2.1546760000  -0.0000010000
H  -2.4762230000  2.1418640000  0.0000590000
H  -3.7269000000  0.0000000000  0.0000900000