41
charge=0, multiplicity=2, basis=def2-QZVPP, AUX_BASIS_CORR=rimp2-def2-QZVPPD, SCF_ALGORITHM=GDM, xc_grid=000099000590, mem_total=60000, num_basis=1756, num_pairs=1013150, num_threads=16
N  1.3628860000  0.2703750000  -0.6541560000
S  1.2323200000  -1.3393960000  -0.4809240000
O  0.4420140000  -1.4887800000  0.9360350000
C  -0.5375670000  -2.5351070000  1.1012660000
C  -1.9073020000  -1.9006430000  1.3284750000
H  -0.2235810000  -3.1179240000  1.9676400000
H  -0.5442130000  -3.1750230000  0.2193960000
C  -2.3485920000  -1.0838470000  0.1535790000
C  -2.1752380000  0.3272810000  0.1027790000
C  -2.8522360000  -1.8345700000  -1.0394470000
C  2.3450600000  1.1400030000  0.0577640000
C  3.7525420000  0.8672920000  -0.4687600000
C  2.2790110000  0.9493360000  1.5731970000
C  1.9271710000  2.5616080000  -0.3127600000
H  1.9603700000  2.7039830000  -1.3945930000
H  2.6103510000  3.2758610000  0.1487750000
H  0.9170710000  2.7802980000  0.0379050000
H  4.0825850000  -0.1400120000  -0.2241760000
H  4.4481600000  1.5821180000  -0.0238770000
H  3.7789820000  0.9846340000  -1.5533180000
H  2.5668240000  -0.0635290000  1.8559700000
H  1.2695140000  1.1352230000  1.9424790000
H  2.9636470000  1.6466980000  2.0604250000
O  2.5439410000  -1.9086060000  -0.3027700000
O  0.3455560000  -1.8305480000  -1.5123830000
C  -1.7729280000  1.0959360000  1.2253740000
H  -2.1150590000  -1.8322140000  -1.8490460000
H  -3.7787490000  -1.4039640000  -1.4295500000
H  -3.0521460000  -2.8770560000  -0.7876710000
C  -2.4015060000  1.0417600000  -1.1023140000
C  -1.6473770000  2.4680210000  1.1523640000
C  -2.2586260000  2.4145570000  -1.1676400000
C  -1.8908500000  3.1448440000  -0.0411730000
H  -2.4373620000  2.9238420000  -2.1073010000
H  -2.6840970000  0.5013480000  -1.9950940000
H  -1.5632840000  0.6080360000  2.1661270000
H  -1.3510100000  3.0219140000  2.0356680000
H  -1.7880130000  4.2214990000  -0.0933240000
H  -1.8708030000  -1.3201800000  2.2496450000
H  -2.6157850000  -2.7184220000  1.4998590000
H  0.4478110000  0.6852220000  -0.7953350000