11
charge=0, multiplicity=1, basis=def2-QZVPP, mem_total=3750, AUX_BASIS_CORR=rimp2-def2-QZVPPD, SCF_ALGORITHM=GDM, xc_grid=000099000590, num_basis=465, num_pairs=100705, num_threads=1
C  -0.0011190000  0.9417970000  0.1969250000
C  -1.2123660000  0.1283550000  0.0492260000
C  -2.2035450000  -0.5304090000  -0.0735180000
O  1.1292300000  0.3949680000  -0.4387970000
C  1.5701840000  -0.8166600000  0.1357940000
H  -3.0836190000  -1.1161600000  -0.1846320000
H  -0.1634240000  1.9200490000  -0.2572660000
H  2.4654520000  -1.1152940000  -0.4062580000
H  1.8186680000  -0.6815650000  1.1963970000
H  0.8128010000  -1.6020740000  0.0448750000
H  0.1973630000  1.0968010000  1.2667020000