12
charge=0, multiplicity=1, basis=def2-QZVPP, AUX_BASIS_CORR=rimp2-def2-QZVPPD, SCF_ALGORITHM=GDM, xc_grid=000099000590, mem_total=3750, num_basis=522, num_pairs=129285, num_threads=1
C  0.6943870000  1.2027190000  0.0000000000
C  -0.6943870000  1.2027130000  0.0000000000
C  1.3887720000  0.0000040000  0.0000000000
C  -1.3887730000  -0.0000030000  0.0000000000
C  0.6943870000  -1.2027130000  0.0000000000
C  -0.6943870000  -1.2027180000  0.0000000000
H  2.4722650000  -0.0000060000  0.0000000000
H  1.2361420000  -2.1410410000  0.0000000000
H  -1.2361450000  2.1410390000  0.0000000000
H  -2.4722650000  0.0000020000  0.0000000000
H  -1.2361330000  -2.1410510000  0.0000000000
H  1.2361330000  2.1410520000  0.0000000000