22
charge=0, multiplicity=1, basis=def2-QZVPP, AUX_BASIS_CORR=rimp2-def2-QZVPPD, SCF_ALGORITHM=GDM, xc_grid=000099000590, mem_total=15000, num_basis=916, num_pairs=362781, num_threads=4
C  -0.2208670000  0.0286300000  -0.0160660000
C  1.2029300000  -0.5247570000  -0.0186200000
C  2.0079490000  0.6804270000  -0.5488710000
C  1.2941860000  1.9111040000  0.0131540000
C  -0.1939110000  1.5379000000  -0.0622080000
C  -1.3038840000  -0.7266060000  0.0035480000
C  1.3803190000  -1.7595150000  -0.8979840000
C  1.6224280000  -0.8534850000  1.4230800000
H  1.9556100000  0.6921640000  -1.6424380000
H  3.0627600000  0.6235260000  -0.2712190000
H  1.5252800000  2.8224070000  -0.5393970000
H  1.5912790000  2.0813060000  1.0505430000
H  -0.6344940000  1.8730680000  -1.0066560000
H  -0.7957280000  1.9833680000  0.7320160000
H  1.0391420000  -1.5673200000  -1.9170510000
H  0.8232220000  -2.6149080000  -0.5089630000
H  2.4342370000  -2.0469300000  -0.9373730000
H  1.5094590000  0.0063920000  2.0858140000
H  2.6689790000  -1.1688740000  1.4508990000
H  1.0086890000  -1.6618200000  1.8253960000
H  -1.3034750000  -1.8061970000  0.0081860000
Cl  -2.9188150000  -0.0575510000  0.0172960000