25
charge=1, multiplicity=1, basis=def2-QZVPP, AUX_BASIS_CORR=rimp2-def2-QZVPPD, SCF_ALGORITHM=GDM, xc_grid=000099000590, mem_total=30000, num_basis=1128, num_pairs=422445, num_threads=8
C  0.4227860000  0.3950480000  -0.2167400000
C  1.8041470000  0.1745980000  -0.0980660000
C  2.6715060000  1.1942970000  -0.5411750000
C  2.3224620000  -1.0235930000  0.4400500000
C  4.0347290000  1.0160600000  -0.4502520000
H  2.2636460000  2.1107490000  -0.9518880000
C  3.6839540000  -1.1867240000  0.5243960000
H  1.6456530000  -1.7961460000  0.7813210000
C  4.5345420000  -0.1700860000  0.0804820000
H  4.7115570000  1.7897400000  -0.7871000000
H  4.0997490000  -2.0974610000  0.9345970000
O  -0.4286650000  -0.4882850000  0.1259960000
H  5.6067930000  -0.3085260000  0.1525570000
C  -1.8251080000  -0.2109940000  0.0715190000
C  -2.3160030000  0.9493260000  0.6348240000
C  -2.6156250000  -1.1745240000  -0.5170920000
C  -3.6864240000  1.1649050000  0.5700460000
H  -1.6659410000  1.6516790000  1.1424380000
C  -3.9813780000  -0.9384260000  -0.5710170000
H  -2.1741840000  -2.0745410000  -0.9242940000
C  -4.5130920000  0.2275240000  -0.0334150000
H  -4.1057320000  2.0613320000  1.0078310000
H  -4.6306800000  -1.6703170000  -1.0334150000
H  -5.5805860000  0.4007240000  -0.0750960000
H  0.0400690000  1.3345880000  -0.6162760000