20
charge=0, multiplicity=1, basis=def2-QZVPP, AUX_BASIS_CORR=rimp2-def2-QZVPPD, SCF_ALGORITHM=GDM, xc_grid=000099000590, mem_total=7500, num_basis=816, num_pairs=265665, num_threads=2
C  -1.4818340000  1.4917530000  -0.0000010000
C  -0.7619020000  0.3643610000  -0.0000090000
C  0.7204880000  0.3308020000  -0.0000170000
C  1.4181410000  1.6627070000  -0.0000520000
C  1.3520910000  -0.8466390000  0.0000050000
C  2.8242180000  -1.1047110000  0.0000020000
H  1.1443160000  2.2492320000  -0.8804750000
H  1.1443500000  2.2492620000  0.8803610000
H  2.4993140000  1.5514050000  -0.0000710000
H  3.1046960000  -1.6967060000  -0.8765000000
H  3.4299800000  -0.2003140000  -0.0000120000
H  3.1047030000  -1.6966830000  0.8765170000
O  -1.3115530000  -0.8788600000  -0.0000100000
C  -2.7172470000  -0.9876660000  0.0000660000
H  -3.1495750000  -0.5244980000  0.8922650000
H  -2.9388000000  -2.0528060000  0.0001070000
H  -3.1496700000  -0.5245490000  -0.8921130000
H  0.7300840000  -1.7342160000  0.0000290000
H  -0.9899950000  2.4506760000  0.0000020000
H  -2.5607030000  1.4964340000  0.0000020000