17
charge=0, multiplicity=1, basis=def2-QZVPP, AUX_BASIS_CORR=rimp2-def2-QZVPPD, SCF_ALGORITHM=GDM, xc_grid=000099000590, mem_total=15000, num_basis=834, num_pairs=283332, num_threads=4
C  0.5026140000  0.6945710000  0.0077910000
C  0.5026140000  -0.6945700000  0.0077910000
C  1.6776790000  -1.4155930000  0.0018790000
C  2.8706300000  -0.6960640000  -0.0086050000
C  2.8706300000  0.6960630000  -0.0086090000
C  1.6776790000  1.4155930000  0.0018730000
C  -0.9073780000  1.1767950000  0.0173080000
C  -0.9073780000  -1.1767940000  0.0172890000
H  1.6652130000  -2.4980420000  0.0015080000
H  3.8146870000  -1.2266490000  -0.0181450000
H  3.8146880000  1.2266480000  -0.0181490000
H  1.6652130000  2.4980420000  0.0015030000
O  -1.3419710000  -2.2910070000  -0.0283790000
O  -1.3419720000  2.2910070000  -0.0283810000
N  -1.6697490000  0.0000000000  0.1111620000
O  -3.0085000000  0.0000020000  -0.1519030000
H  -3.4545540000  -0.0000140000  0.7041520000