32
charge=0, multiplicity=2, basis=def2-QZVPP, AUX_BASIS_CORR=rimp2-def2-QZVPPD, SCF_ALGORITHM=GDM, xc_grid=000099000590, mem_total=30000, num_basis=1284, num_pairs=605016, num_threads=8
C  2.0071390000  -0.4917720000  0.4211790000
C  1.3754470000  -1.6981620000  -0.2347000000
C  0.2362730000  -1.3333800000  -1.2208930000
H  0.9808950000  -2.3570010000  0.5431540000
H  2.1417690000  -2.2603470000  -0.7782130000
C  -0.8619500000  -0.5288010000  -0.6089130000
C  -1.7190870000  -1.1491230000  0.4472660000
C  -0.8555770000  0.9634900000  -0.7036850000
N  1.8634790000  -0.1866540000  1.6439980000
C  2.8458080000  0.3882900000  -0.4717650000
C  3.3831780000  1.6435640000  0.1950440000
C  -2.2611860000  1.5664340000  -0.6036440000
H  -0.3718670000  1.2821530000  -1.6320430000
H  -0.2431000000  1.3781880000  0.1153000000
C  -3.1115930000  -0.5137510000  0.5249090000
H  -1.2360900000  -1.0265590000  1.4328750000
H  -1.7999140000  -2.2290210000  0.2857850000
H  2.5674030000  2.2734270000  0.5518810000
H  3.9961630000  1.3941110000  1.0609730000
H  3.6691370000  -0.2257460000  -0.8565630000
H  2.2507980000  0.6508880000  -1.3525230000
C  -3.0196180000  1.0082640000  0.5978620000
H  -2.8184520000  1.3338410000  -1.5176250000
H  -2.1930970000  2.6556910000  -0.5411410000
H  -4.0206460000  1.4448250000  0.6489450000
H  -2.5023710000  1.2975640000  1.5207540000
H  -3.6520370000  -0.9076780000  1.3897530000
H  -3.6849080000  -0.7960540000  -0.3647300000
H  3.9868050000  2.2211450000  -0.5080260000
H  -0.1655810000  -2.2777140000  -1.6064340000
H  0.6568670000  -0.8010070000  -2.0780790000
H  1.2808740000  -0.8744540000  2.1220070000