12
charge=0, multiplicity=1, basis=def2-QZVPP, AUX_BASIS_CORR=rimp2-def2-QZVPPD, SCF_ALGORITHM=GDM, xc_grid=000099000590, mem_total=3750, num_basis=522, num_pairs=130011, num_threads=1
C  -0.0500850000  -1.1943860000  0.0000090000
C  0.0253950000  1.2234880000  -0.0000470000
C  -1.2594930000  0.8741670000  -0.0000090000
H  0.1656830000  -1.8058670000  0.8774560000
H  0.1656200000  -1.8058260000  -0.8774840000
C  -1.4714560000  -0.6161100000  0.0000570000
H  -2.0508150000  -0.9223200000  0.8752760000
H  -2.0509150000  -0.9223980000  -0.8750680000
C  0.8799200000  0.0163290000  -0.0000140000
O  2.0853870000  -0.0198360000  -0.0000060000
H  -2.0908800000  1.5693550000  -0.0000190000
H  0.4325270000  2.2248200000  -0.0000890000