22
charge=1, multiplicity=1, basis=def2-QZVPP, mem_total=15000, AUX_BASIS_CORR=rimp2-def2-QZVPPD, SCF_ALGORITHM=GDM, xc_grid=000099000590, num_basis=984, num_pairs=369597, num_threads=4
C  3.0712300000  -1.1235680000  0.7577010000
N  2.6096390000  -0.3418130000  -0.4435060000
C  1.3127580000  0.3292620000  -0.2476670000
N  1.3627960000  1.6298990000  -0.1285870000
C  0.2007000000  2.2809260000  0.0623540000
N  -1.0005040000  1.7260500000  0.1389820000
C  -0.9975300000  0.4117710000  0.0121390000
C  0.1435960000  -0.3895300000  -0.1854960000
H  0.2623100000  3.3572520000  0.1589720000
N  -0.1904080000  -1.7136960000  -0.2777180000
C  -1.4922870000  -1.7107320000  -0.1426510000
N  -2.0420370000  -0.4677130000  0.0355840000
H  -2.1124920000  -2.5957110000  -0.1641490000
C  -3.4504920000  -0.1286250000  0.2112330000
H  -4.0322520000  -1.0474750000  0.2030680000
H  -3.7787650000  0.5181920000  -0.6005540000
H  -3.5901940000  0.3829200000  1.1618670000
H  3.1346170000  -0.4365160000  1.5977630000
H  4.0460520000  -1.5522650000  0.5361800000
H  2.3390780000  -1.9043210000  0.9477900000
H  2.5473450000  -0.9695120000  -1.2512460000
H  3.2800490000  0.4013180000  -0.6686560000