6
charge=0, multiplicity=2, basis=def2-QZVPP, AUX_BASIS_CORR=rimp2-def2-QZVPPD, SCF_ALGORITHM=GDM, xc_grid=000099000590, mem_total=3750, num_basis=381, num_pairs=69326, num_threads=1
O  -1.8555190000  0.0000000000  1.2438900000
O  -0.5563510000  0.0000000000  1.3333170000
C  0.0992280000  0.0000000000  0.0441580000
Cl  -0.3523350000  1.4526190000  -0.8461840000
Cl  1.8046780000  -0.0000210000  0.4639970000
Cl  -0.3523660000  -1.4525980000  -0.8462020000