39
charge=0, multiplicity=1, basis=def2-QZVPP, mem_total=60000, AUX_BASIS_CORR=rimp2-def2-QZVPPD, SCF_ALGORITHM=GDM, xc_grid=000099000590, num_basis=1683, num_pairs=885541, num_threads=16
C  3.0623400000  -0.4588660000  -0.9426850000
C  2.3384390000  0.8629090000  -0.6584450000
C  1.1324450000  0.6169190000  0.2448860000
O  1.4677070000  -0.0718260000  1.4190400000
C  2.1036060000  -1.3264110000  1.2001680000
C  3.3655910000  -1.1949590000  0.3645660000
H  1.4101650000  -2.0184380000  0.7096930000
C  -1.1186970000  -0.1499110000  0.0165980000
C  -1.9695770000  1.0080350000  -0.5038260000
C  -3.4551290000  0.7911570000  -0.1788520000
C  -3.8769330000  -0.6049480000  -0.6229300000
O  -3.0689790000  -1.5846240000  0.0018420000
C  -1.7142790000  -1.4858120000  -0.4065690000
H  -1.6305850000  -1.5950940000  -1.4962580000
O  4.2560780000  -0.2293530000  -1.6684840000
H  2.4111310000  -1.0782610000  -1.5622340000
H  4.9742920000  -0.2249960000  -1.0223240000
O  4.4151920000  -0.5415540000  1.0575090000
H  3.7334400000  -2.1988810000  0.1355380000
H  4.1501500000  0.3939930000  1.1394960000
O  0.1915390000  -0.0964210000  -0.5261280000
H  -1.0645690000  -0.1100470000  1.1091600000
O  -1.5440080000  2.2459590000  0.0220790000
H  -1.8317980000  1.0532080000  -1.5883580000
H  -2.0583740000  2.3623670000  0.8376150000
O  -5.1924000000  -0.8182630000  -0.2394470000
H  -3.7570390000  -0.7054020000  -1.7144270000
H  -5.4141560000  -1.7392740000  -0.4090480000
N  -3.6626880000  1.0460220000  1.2417250000
H  -4.0341520000  1.5269970000  -0.7409500000
H  -4.6366480000  1.2476030000  1.4282600000
H  -3.4246610000  0.2245780000  1.7888670000
N  3.2593320000  1.7804130000  0.0209890000
H  3.9812080000  2.0719750000  -0.6285790000
H  2.7764590000  2.6139790000  0.3368350000
H  2.3522080000  -1.7107580000  2.1878370000
H  -1.1808120000  -2.3095100000  0.0635000000
H  1.9605860000  1.2707750000  -1.6017380000
H  0.6987720000  1.5601250000  0.5793560000