23
charge=-1, multiplicity=1, basis=def2-QZVPP, AUX_BASIS_CORR=rimp2-def2-QZVPPD, SCF_ALGORITHM=GDM, xc_grid=000099000590, mem_total=15000, num_basis=1068, num_pairs=438083, num_threads=4
H  3.1977950000  -1.9217670000  -0.3804160000
C  -1.0196330000  1.3127330000  0.0472150000
C  -2.3032760000  0.7853760000  0.1330100000
C  -2.4669610000  -0.5813080000  0.0189840000
C  -1.3844190000  -1.4296420000  -0.1928690000
C  -0.1017440000  -0.9156310000  -0.3012710000
C  0.0943610000  0.4719310000  -0.1800530000
C  1.4422230000  1.0423220000  -0.2143150000
C  2.5949240000  0.1352560000  -0.4905960000
C  2.3856760000  -1.2968920000  0.0926120000
H  3.4915960000  0.5863470000  -0.0643390000
H  2.7124190000  0.0978130000  -1.5856740000
C  1.0669610000  -1.8184810000  -0.5596740000
H  1.1992680000  -1.9133180000  -1.6484210000
H  0.8576110000  -2.8135590000  -0.1606250000
H  -3.1482130000  1.4362480000  0.3105720000
H  -1.5400020000  -2.5021850000  -0.2624440000
O  1.6104780000  2.2603500000  -0.0472470000
O  2.3693390000  -1.3164260000  1.4155620000
O  -3.7402330000  -1.0754310000  0.1248190000
H  -3.6981880000  -2.0342050000  0.0788160000
O  -0.8691020000  2.6357880000  0.1882120000
H  0.1151770000  2.7964030000  0.1434920000