24
charge=0, multiplicity=2, basis=def2-QZVPP, AUX_BASIS_CORR=rimp2-def2-QZVPPD, SCF_ALGORITHM=GDM, xc_grid=000099000590, mem_total=15000, num_basis=976, num_pairs=397811, num_threads=4
C  -0.1218750000  -0.6135160000  0.1857300000
C  0.9715640000  -1.3855260000  -0.5202920000
C  2.3295170000  -0.7901130000  -0.1536240000
H  0.8365410000  -1.3117430000  -1.6034320000
H  0.9132110000  -2.4491240000  -0.2624200000
C  2.1948600000  0.7185300000  -0.3074780000
H  3.1251470000  -1.1993230000  -0.7801240000
H  2.5837610000  -1.0348520000  0.8830290000
C  0.9955660000  1.2073270000  0.4704350000
H  2.0673620000  0.9767610000  -1.3638400000
H  3.0956710000  1.2328300000  0.0406520000
C  0.2781200000  2.3098040000  0.0703660000
H  1.0544040000  1.0355700000  1.5429460000
H  0.2980440000  2.6483880000  -0.9588320000
H  -0.3986010000  2.8191230000  0.7451770000
S  -1.5148110000  -0.3923540000  -0.8894120000
C  -0.4136010000  -1.0364460000  1.5998460000
H  -0.9754490000  -1.9780800000  1.6152440000
H  -0.9930240000  -0.2898190000  2.1451470000
H  0.5168680000  -1.1953850000  2.1492570000
C  -2.7238850000  0.4482570000  0.1600890000
H  -3.5701280000  0.6906650000  -0.4815210000
H  -3.0713210000  -0.1896200000  0.9711830000
H  -2.3071060000  1.3723740000  0.5577000000