58
charge=1, multiplicity=1, basis=def2-QZVPP, mem_total=240000, AUX_BASIS_CORR=rimp2-def2-QZVPPD, SCF_ALGORITHM=GDM, xc_grid=000099000590, num_basis=2415, num_pairs=1625570, num_threads=64
C  1.5230490000  -1.8092860000  -0.5353820000
C  0.9201260000  -0.5273590000  1.7083690000
C  2.0799990000  0.4235440000  1.4074510000
C  3.1963480000  -0.1773550000  0.5502930000
C  2.6537910000  -0.7989890000  -0.7385080000
H  1.6974720000  1.3046030000  0.8936180000
H  2.4969180000  0.7587890000  2.3593120000
H  3.7184090000  -0.9441410000  1.1265450000
H  2.3036280000  0.0071480000  -1.3824260000
H  3.4660930000  -1.3041360000  -1.2649950000
N  0.5317630000  -1.2121760000  0.4254300000
O  -0.6758170000  -1.5623240000  0.3052840000
C  0.8263770000  -2.0809390000  -1.8652710000
H  0.0694250000  -2.8584710000  -1.7713350000
H  0.3629660000  -1.1890980000  -2.2824480000
H  1.5802200000  -2.4269500000  -2.5725610000
C  2.0294610000  -3.1482360000  0.0254590000
H  1.1957500000  -3.7812890000  0.3315750000
H  2.5721950000  -3.6648990000  -0.7669850000
H  2.7078360000  -3.0327800000  0.8665100000
C  -0.2754870000  0.2655300000  2.2302060000
H  0.0476530000  0.8125240000  3.1159400000
H  -0.6342230000  0.9959920000  1.5080350000
H  -1.1014640000  -0.3838820000  2.5152600000
C  1.2887300000  -1.5881480000  2.7573950000
H  1.3583820000  -1.0960990000  3.7283370000
H  0.5160460000  -2.3551580000  2.8226150000
H  2.2435970000  -2.0695980000  2.5643270000
C  -1.8583260000  0.1959170000  -1.0904560000
H  -1.3463250000  -0.7471940000  -0.3161040000
C  -3.0418110000  0.5862830000  -0.2545870000
C  -3.7172030000  -0.3442600000  0.5335230000
C  -3.4820900000  1.9097600000  -0.2826240000
C  -4.8191720000  0.0408420000  1.2797100000
H  -3.3740120000  -1.3709350000  0.5796600000
C  -4.5934630000  2.2879800000  0.4549120000
H  -2.9719440000  2.6418040000  -0.8962200000
C  -5.2600150000  1.3568730000  1.2390610000
H  -5.3339290000  -0.6864430000  1.8946370000
H  -4.9375380000  3.3138550000  0.4171270000
H  -6.1229000000  1.6571490000  1.8201160000
O  -2.0633130000  -0.4276360000  -2.2717930000
C  -3.2050320000  -1.2688760000  -2.4611670000
H  -3.1307310000  -2.1591420000  -1.8340540000
H  -4.1248830000  -0.7295130000  -2.2377380000
H  -3.1795680000  -1.5552800000  -3.5084990000
C  -0.6711140000  1.0920490000  -1.1607290000
H  -0.4166930000  1.3250790000  -2.1933340000
H  -0.8026140000  2.0041240000  -0.5845010000
H  0.2163610000  0.5910660000  -0.7301320000
N  4.2017020000  0.8348400000  0.2428220000
C  3.9388290000  1.9676430000  -0.4701780000
C  5.1051040000  2.8935980000  -0.6946510000
H  6.0331040000  2.5481880000  -0.2393210000
H  5.2542110000  3.0090170000  -1.7686520000
H  4.8514540000  3.8748590000  -0.2928770000
H  5.1416130000  0.6865330000  0.5699730000
O  2.8242080000  2.2157360000  -0.9017530000