13
charge=-1, multiplicity=1, basis=def2-QZVPP, AUX_BASIS_CORR=rimp2-def2-QZVPPD, SCF_ALGORITHM=GDM, xc_grid=000099000590, mem_total=3750, num_basis=592, num_pairs=164096, num_threads=1
S  2.0108530000  -0.4731700000  -0.1465560000
C  0.9229090000  0.4975140000  0.9715860000
C  -0.4393110000  0.8465590000  0.3630980000
H  1.4099860000  1.4416270000  1.2278120000
H  0.7561380000  -0.0515470000  1.9029720000
N  -0.2383610000  1.6468790000  -0.8472750000
C  -1.3309400000  -0.3733590000  0.0852290000
H  -1.0065630000  1.4459690000  1.0810230000
O  -2.5275010000  -0.3326210000  0.2901520000
O  -0.7564910000  -1.4413500000  -0.4379680000
H  0.2591800000  -1.3051080000  -0.4771170000
H  0.5109910000  1.2102030000  -1.3832520000
H  -1.0788570000  1.6689170000  -1.4125600000