6
charge=0, multiplicity=2, basis=def2-QZVPP, AUX_BASIS_CORR=rimp2-def2-QZVPPD, SCF_ALGORITHM=GDM, xc_grid=000099000590, mem_total=3750, num_basis=261, num_pairs=34329, num_threads=1
O  -1.1784560000  -0.2755230000  0.0000310000
O  -0.1579080000  0.5374590000  -0.0000490000
C  1.0895860000  -0.1806980000  0.0000120000
H  1.1441520000  -0.7969440000  -0.8965110000
H  1.8650540000  0.5823760000  -0.0000940000
H  1.1441870000  -0.7967300000  0.8966790000