28
charge=0, multiplicity=1, basis=def2-QZVPP, mem_total=30000, AUX_BASIS_CORR=rimp2-def2-QZVPPD, SCF_ALGORITHM=GDM, xc_grid=000099000590, num_basis=1299, num_pairs=619131, num_threads=8
C  -2.4919890000  0.4677580000  -1.0653850000
C  -1.3795130000  0.3754890000  -0.2374040000
C  -1.5278750000  -0.1359980000  1.0489030000
C  -2.7727120000  -0.5529980000  1.4938390000
C  -3.8788110000  -0.4673080000  0.6591350000
C  -3.7365880000  0.0436180000  -0.6227120000
C  -0.0347920000  0.8136740000  -0.7509690000
N  0.7678460000  1.4681830000  0.2891370000
O  2.0692260000  1.5549270000  -0.3297260000
C  0.3670940000  2.8246760000  0.5917130000
C  2.2830470000  0.2347060000  -0.7408460000
C  0.9354200000  -0.3027970000  -1.2310670000
H  3.0977480000  0.2292290000  -1.4629300000
C  0.7818200000  -1.6302980000  -0.5253160000
C  2.6227240000  -0.6812950000  0.4421020000
H  0.3551500000  3.4557140000  -0.3065860000
H  -0.6310260000  2.7882820000  1.0268480000
H  1.0584590000  3.2411320000  1.3217860000
H  -0.6671200000  -0.2007890000  1.7028500000
H  -2.8781140000  -0.9505990000  2.4957510000
H  -4.8496230000  -0.7975720000  1.0079120000
H  -4.5955580000  0.1163060000  -1.2784780000
H  -2.3846640000  0.8737200000  -2.0653250000
O  3.4883050000  -0.5637360000  1.2381360000
O  1.7470740000  -1.7467330000  0.4566350000
O  0.0001840000  -2.4950980000  -0.7319400000
H  0.8485660000  -0.4608570000  -2.3031190000
H  -0.1740140000  1.4979090000  -1.5994690000