37
charge=0, multiplicity=1, basis=def2-QZVPP, mem_total=60000, AUX_BASIS_CORR=rimp2-def2-QZVPPD, SCF_ALGORITHM=GDM, xc_grid=000099000590, num_basis=1569, num_pairs=887608, num_threads=16
O  3.2349890000  -1.3040530000  0.6416840000
C  3.0140790000  -1.2648090000  -0.7630560000
C  2.1345660000  -0.0481040000  -1.0162790000
C  0.6184290000  -0.2986500000  -0.9146570000
C  0.2144720000  -1.0667910000  0.3368230000
O  -1.0337500000  -1.7548590000  0.1925690000
H  0.1945040000  -0.4275440000  1.2176760000
H  0.9165580000  -1.8703880000  0.5388990000
H  2.5547750000  -2.2104360000  -1.0571570000
H  3.9700540000  -1.1671880000  -1.2923440000
C  3.1656520000  0.0141940000  1.1776730000
C  -2.2596960000  -1.1972240000  0.1466320000
C  -2.4355030000  0.3299130000  0.1037120000
O  -3.1982750000  -1.9447560000  0.1270270000
C  2.6661540000  0.9353580000  0.0429300000
H  4.1516460000  0.3157040000  1.5428570000
H  2.4763380000  -0.0010110000  2.0260840000
C  1.6715670000  1.9751820000  0.4609800000
C  0.4381820000  2.0334320000  -0.0251000000
H  2.0049200000  2.7204150000  1.1771940000
C  -0.1030650000  1.0498790000  -1.0346930000
H  -0.2211010000  2.8354730000  0.2911780000
C  -1.6334820000  0.9635180000  -1.0555530000
H  -1.9257660000  0.4379100000  -1.9704340000
H  -2.0102140000  1.9849170000  -1.1703490000
C  -2.1363060000  0.9386490000  1.4849820000
H  -2.7550580000  0.4549430000  2.2434630000
H  -2.3954220000  1.9997310000  1.4741680000
H  -1.0974600000  0.8625810000  1.7938720000
C  -3.9173660000  0.5969480000  -0.1958780000
H  -4.0954680000  1.6745830000  -0.2090170000
H  -4.5568000000  0.1436750000  0.5595350000
H  -4.2079250000  0.1832290000  -1.1619270000
H  2.3228680000  0.3519760000  -2.0153090000
H  3.5351060000  1.4484810000  -0.3814370000
H  0.3336140000  -0.9287720000  -1.7643920000
H  0.1550170000  1.4520850000  -2.0238940000