31
charge=0, multiplicity=1, basis=def2-QZVPP, AUX_BASIS_CORR=rimp2-def2-QZVPPD, SCF_ALGORITHM=GDM, xc_grid=000099000590, mem_total=30000, num_basis=1416, num_pairs=660110, num_threads=8
O  2.0305340000  -1.2483450000  -0.2777830000
C  3.1275110000  -0.8240560000  0.5700580000
C  3.0557430000  0.6978020000  0.5798160000
C  1.5549480000  0.9363930000  0.4747280000
C  1.1425140000  -0.1904320000  -0.4880510000
C  4.4121220000  -1.4198420000  0.0523810000
H  2.9202600000  -1.1867160000  1.5837000000
O  3.7097300000  1.2313580000  -0.5481270000
O  1.2950930000  2.2252320000  0.0005500000
N  -0.2199420000  -0.6586420000  -0.2438400000
H  1.2055910000  0.1615160000  -1.5223190000
C  -1.3303160000  0.1366580000  -0.1479290000
C  -0.6747840000  -1.9574430000  -0.1890690000
H  1.0843640000  0.7606420000  1.4497970000
H  3.4731470000  1.1108020000  1.5043020000
H  3.2672120000  2.0633730000  -0.7604560000
H  0.3255530000  2.2954800000  -0.1194440000
N  -1.9684430000  -2.0455070000  -0.0504520000
C  -2.3995240000  -0.7367850000  -0.0248700000
C  -3.6679110000  -0.1496170000  0.0999440000
N  -3.7627110000  1.1855570000  0.0895080000
C  -2.6523700000  1.9096250000  -0.0346890000
N  -1.4024290000  1.4749690000  -0.1567060000
N  -4.7870520000  -0.8826990000  0.2296180000
H  -4.7354830000  -1.8870270000  0.2307520000
H  -5.6735170000  -0.4140720000  0.3060900000
H  -2.7877220000  2.9858080000  -0.0345750000
H  0.0165580000  -2.7820620000  -0.2503280000
H  4.3290530000  -2.5065940000  0.0134370000
H  5.2403080000  -1.1590410000  0.7148410000
H  4.6282650000  -1.0376300000  -0.9437260000