26
charge=0, multiplicity=2, basis=def2-QZVPP, AUX_BASIS_CORR=rimp2-def2-QZVPPD, SCF_ALGORITHM=GDM, xc_grid=000099000590, mem_total=30000, num_basis=1144, num_pairs=469187, num_threads=8
C  -3.2825550000  -0.4748720000  -0.5107270000
C  -2.8770050000  -0.4254060000  0.9559260000
C  -2.2200830000  0.9056000000  1.3334860000
H  -2.2041220000  -1.2722780000  1.1256390000
H  -3.7561050000  -0.6124350000  1.5777460000
C  -1.2482000000  1.3928990000  0.2780420000
H  -1.7374740000  0.8139760000  2.3124950000
H  -3.0072150000  1.6543120000  1.4449110000
C  0.1175800000  0.8452300000  0.2058570000
H  -1.2695500000  2.4709310000  0.1242880000
N  -2.7615460000  0.2440310000  -1.4012220000
C  -4.3446690000  -1.4809310000  -0.8762000000
H  -4.0551860000  -2.4748110000  -0.5249550000
H  -4.4926300000  -1.5070620000  -1.9536570000
H  -5.2870730000  -1.2212090000  -0.3872640000
C  1.0460990000  1.4327500000  -0.6627620000
C  0.5371270000  -0.2630840000  0.9461830000
H  -1.8900780000  0.9664290000  -0.7845240000
C  1.8235970000  -0.7674120000  0.8276150000
C  2.3307150000  0.9398130000  -0.7938690000
C  2.7118340000  -0.1639830000  -0.0447910000
H  2.1366430000  -1.6225490000  1.4120420000
H  -0.1389830000  -0.7395190000  1.6436480000
H  0.7476830000  2.2937690000  -1.2500990000
Cl  4.3342420000  -0.7944840000  -0.2008580000
H  3.0361560000  1.4048240000  -1.4696970000