46
charge=1, multiplicity=1, basis=def2-QZVPP, mem_total=120000, AUX_BASIS_CORR=rimp2-def2-QZVPPD, SCF_ALGORITHM=GDM, xc_grid=000099000590, num_basis=1947, num_pairs=1240382, num_threads=32
C  -0.7218840000  3.3221550000  -0.6434680000
C  -0.9648290000  1.9798280000  0.0521170000
C  1.1230990000  2.4478290000  0.6306420000
C  0.7481030000  3.6449810000  -0.2498810000
H  -0.8837930000  3.2681710000  -1.7223890000
H  -1.4239600000  4.0594150000  -0.2555220000
H  1.4141990000  3.7247670000  -1.1074070000
H  0.8154580000  4.5732780000  0.3163130000
C  -0.1907460000  2.1277850000  1.3544900000
H  -0.1576670000  1.2278350000  1.9662880000
H  -0.5721430000  2.9547380000  1.9514770000
H  -1.9834140000  1.6094470000  0.0760910000
H  2.0184310000  2.5767780000  1.2315500000
N  1.3001250000  1.2672130000  -0.2496740000
N  -0.0737880000  0.9884910000  -0.7002860000
C  -0.3310170000  -0.5324290000  -0.6201360000
C  -1.7486740000  -0.8526210000  -0.2358820000
C  -2.6849770000  -1.0439370000  -1.2492700000
C  -2.1618740000  -0.9412200000  1.0920290000
C  -4.0129790000  -1.3071530000  -0.9456360000
H  -2.3726620000  -1.0014170000  -2.2874270000
C  -3.4885900000  -1.2028670000  1.3968040000
H  -1.4542290000  -0.8133150000  1.9013420000
C  -4.4165580000  -1.3836160000  0.3791810000
H  -4.7283970000  -1.4622010000  -1.7432220000
H  -3.7982350000  -1.2741490000  2.4318390000
H  -5.4507260000  -1.5947800000  0.6203150000
C  1.8192790000  0.0692030000  0.4453480000
H  1.9639180000  0.3082700000  1.5010730000
C  0.8011100000  -1.0826280000  0.2433360000
C  3.1082290000  -0.4717430000  -0.1875400000
C  1.6374000000  -2.1582160000  -0.4806060000
C  2.5598680000  -1.2965390000  -1.3590160000
H  2.0435230000  -0.6931170000  -2.1095570000
H  3.3274490000  -1.8809430000  -1.8667430000
C  3.6391870000  -1.5708920000  0.7500320000
C  2.6311770000  -2.7373570000  0.5393150000
H  3.6913000000  -1.2385090000  1.7886090000
H  4.6471770000  -1.8628500000  0.4564850000
H  2.1389220000  -3.0474290000  1.4624700000
H  3.1268370000  -3.6165630000  0.1277080000
H  3.8259420000  0.3103640000  -0.4279870000
H  1.0298920000  -2.9077860000  -0.9874110000
H  0.4145130000  -1.4525950000  1.1899300000
H  -0.1785160000  -0.8600580000  -1.6483130000
H  -0.1101330000  1.2393390000  -1.6869330000