20
charge=0, multiplicity=2, basis=def2-QZVPP, AUX_BASIS_CORR=rimp2-def2-QZVPPD, SCF_ALGORITHM=GDM, xc_grid=000099000590, mem_total=7500, num_basis=789, num_pairs=258794, num_threads=2
C  -2.5149040000  0.3957670000  -0.0383490000
C  -1.2992020000  1.2971330000  -0.0322220000
C  -0.4283770000  -0.5356900000  -0.3490760000
C  -1.7752740000  -0.9144890000  0.2487990000
C  0.7808940000  -0.7604920000  0.2649250000
C  2.1059140000  -0.4897910000  -0.3712640000
C  2.8177970000  0.7251340000  0.2349020000
H  -2.9680050000  0.3718470000  -1.0320880000
H  -3.2976150000  0.6602570000  0.6774830000
H  -0.9255500000  1.6118110000  0.9368910000
H  -1.1327530000  2.0114650000  -0.8318780000
H  -0.4185320000  -0.4534530000  -1.4349840000
H  -1.6638290000  -1.0693090000  1.3251420000
H  -2.2170470000  -1.8193980000  -0.1772500000
H  0.7859590000  -1.0200770000  1.3220670000
H  1.9697400000  -0.3362540000  -1.4458570000
H  2.7537140000  -1.3675670000  -0.2617950000
H  2.2208080000  1.6298710000  0.1021450000
H  3.7916890000  0.8870280000  -0.2330710000
H  2.9803360000  0.5883460000  1.3069080000