16
charge=0, multiplicity=1, basis=def2-QZVPP, AUX_BASIS_CORR=rimp2-def2-QZVPPD, SCF_ALGORITHM=GDM, xc_grid=000099000590, mem_total=3750, num_basis=642, num_pairs=163630, num_threads=1
C  -1.7925880000  -0.4308640000  -0.0000570000
C  -0.6694670000  0.2855210000  0.0000160000
C  0.6694670000  -0.2855210000  -0.0000180000
C  1.7925880000  0.4308640000  0.0000550000
C  3.1743580000  -0.1384590000  0.0000300000
H  3.1553600000  -1.2297700000  -0.0000810000
H  3.7373330000  0.1922010000  -0.8780200000
H  3.7372920000  0.1920230000  0.8781730000
C  -3.1743580000  0.1384590000  -0.0000270000
H  -3.1553600000  1.2297700000  0.0000520000
H  -3.7373070000  -0.1920480000  -0.8781510000
H  -3.7373190000  -0.1921750000  0.8780420000
H  1.7152970000  1.5165680000  0.0001440000
H  0.7340010000  -1.3721240000  -0.0001070000
H  -0.7340010000  1.3721240000  0.0001050000
H  -1.7152970000  -1.5165680000  -0.0001480000