44
charge=0, multiplicity=2, basis=def2-QZVPP, AUX_BASIS_CORR=rimp2-def2-QZVPPD, SCF_ALGORITHM=GDM, xc_grid=000099000590, mem_total=60000, num_basis=1819, num_pairs=947091, num_threads=16
C  -2.1449390000  -0.5236350000  -0.0615500000
C  -3.6803380000  -0.4103790000  -0.1317340000
C  -3.8945920000  1.1154550000  -0.0625480000
C  -2.7772180000  1.6332190000  0.8436600000
C  -1.5640130000  0.7858180000  0.4428790000
C  -1.4612670000  -1.5849220000  -0.3976250000
C  -4.2931320000  -1.0944470000  1.0983730000
C  -4.2674690000  -1.0151140000  -1.4030010000
H  -4.8968720000  1.3726080000  0.2884810000
H  -3.7781620000  1.5394540000  -1.0653510000
H  -3.0319580000  1.4654230000  1.8932210000
H  -2.5971230000  2.7024820000  0.7220740000
H  -1.0125110000  1.2687660000  -0.3676610000
H  -0.8486240000  0.6307320000  1.2499000000
H  -1.7080000000  -2.5597890000  -0.7880020000
Cl  0.7642410000  -1.4728380000  -0.1971210000
H  -3.8930620000  -0.6889030000  2.0294530000
H  -4.0781350000  -2.1646560000  1.0867870000
H  -5.3786270000  -0.9599550000  1.1065790000
H  -4.1048760000  -2.0945810000  -1.4411050000
H  -3.8128290000  -0.5734630000  -2.2919480000
H  -5.3461030000  -0.8400900000  -1.4454870000
C  2.7829480000  -1.1018270000  -0.1105370000
C  2.8939250000  0.4062240000  -0.0255620000
C  3.1888960000  -1.8405220000  1.1030120000
C  3.5803510000  -1.3097240000  2.2579620000
H  2.3362280000  0.7511830000  0.8469830000
H  3.9496340000  0.6453140000  0.1627120000
C  2.4250570000  1.1794640000  -1.2525060000
H  1.4064730000  0.8818930000  -1.5079170000
C  2.4728510000  2.6980100000  -1.0356840000
H  3.0550340000  0.9459210000  -2.1139460000
H  3.4941210000  3.0060430000  -0.7887570000
H  2.2136670000  3.2074700000  -1.9676320000
C  1.5737720000  3.1625480000  0.0168110000
C  0.8281290000  3.5255870000  0.8799670000
H  0.1653070000  3.8481370000  1.6452780000
C  3.3125580000  -1.7238900000  -1.3815420000
H  4.3846770000  -1.5132840000  -1.4702840000
H  2.8107370000  -1.3310580000  -2.2645490000
H  3.1795030000  -2.8057990000  -1.3679340000
H  3.1507150000  -2.9220610000  1.0077470000
H  3.6372830000  -0.2407360000  2.4198600000
H  3.8582830000  -1.9439880000  3.0903040000