52
charge=0, multiplicity=2, basis=def2-QZVPP, mem_total=120000, AUX_BASIS_CORR=rimp2-def2-QZVPPD, SCF_ALGORITHM=GDM, xc_grid=000099000590, num_basis=2356, num_pairs=1534515, num_threads=32
H  2.7111100000  1.1330790000  2.2013500000
C  2.8929790000  0.1639570000  1.7591060000
C  3.3272560000  -2.3007790000  0.6060110000
C  2.6898530000  0.0047860000  0.3888100000
C  3.3020350000  -0.8983950000  2.5480300000
C  3.5102260000  -2.1422170000  1.9688570000
C  2.9238760000  -1.2411020000  -0.2059210000
H  3.4494070000  -0.7558000000  3.6117680000
H  3.8182230000  -2.9852370000  2.5756330000
H  3.4803470000  -3.2671800000  0.1418680000
C  2.7965570000  -1.5346370000  -1.6911830000
C  2.1082300000  1.1691900000  -0.3916120000
O  2.1568870000  2.3382630000  0.3953170000
C  2.3906060000  3.4265220000  -0.4857120000
C  3.3134980000  2.7986720000  -1.5150870000
O  2.8608870000  1.4491380000  -1.5684650000
H  1.4495330000  3.7739010000  -0.9230420000
H  2.8473170000  4.2319430000  0.0863850000
H  4.3573070000  2.8259490000  -1.1893990000
H  3.2268140000  3.2364730000  -2.5093110000
O  2.1395120000  -2.7598640000  -1.9452270000
H  1.2053990000  -2.6621100000  -1.7110550000
C  0.6447760000  0.9062590000  -0.8340670000
H  0.3298200000  1.7658570000  -1.4236120000
H  0.6373710000  0.0251870000  -1.4745980000
C  -0.3051250000  0.7138020000  0.2892070000
C  -0.4211550000  -0.5778170000  1.0046090000
H  0.5449180000  -1.0522930000  1.1836650000
H  -0.9762650000  -0.4954180000  1.9350530000
S  -1.3050080000  -1.8430280000  0.0317530000
C  -2.8512520000  -1.0566930000  -0.3724430000
C  -5.1899280000  0.2850850000  -0.8989010000
C  -3.9166270000  -1.1954140000  0.5038510000
C  -2.9340260000  -0.2732000000  -1.5136260000
C  -4.1158570000  0.4053840000  -1.7711850000
C  -5.0944690000  -0.5168400000  0.2318340000
H  -3.8183020000  -1.8307310000  1.3746580000
H  -2.0906300000  -0.2091740000  -2.1885310000
H  -4.1985240000  1.0239870000  -2.6557560000
H  -5.9402280000  -0.6175390000  0.9004430000
H  -6.1117790000  0.8150650000  -1.1058610000
O  -0.5639870000  -2.0294780000  -1.2215360000
O  -1.5615110000  -2.9746360000  0.9096290000
C  -1.1967560000  1.8195210000  0.6162950000
O  -1.2007110000  2.8868000000  0.0420260000
O  -2.0451890000  1.5302640000  1.6219460000
C  -2.9991930000  2.5445070000  1.9392670000
H  -3.6292260000  2.7516600000  1.0742170000
H  -2.4950480000  3.4613350000  2.2437030000
H  -3.5931100000  2.1433840000  2.7561540000
H  3.8022320000  -1.6393520000  -2.1053220000
H  2.3333230000  -0.7119880000  -2.2328240000