6
charge=0, multiplicity=1, basis=def2-QZVPP, AUX_BASIS_CORR=rimp2-def2-QZVPPD, SCF_ALGORITHM=GDM, xc_grid=000099000590, mem_total=3750, num_basis=355, num_pairs=58692, num_threads=1
F  -1.8717250000  -0.6525180000  0.0000020000
S  -0.9973020000  0.7367880000  -0.0000010000
C  0.6386260000  -0.0438360000  0.0000000000
F  1.5128470000  0.9691620000  0.0000010000
F  0.8530540000  -0.7986330000  -1.0724990000
F  0.8530550000  -0.7986320000  1.0724990000