9
charge=-1, multiplicity=1, basis=def2-QZVPP, mem_total=3750, AUX_BASIS_CORR=rimp2-def2-QZVPPD, SCF_ALGORITHM=GDM, xc_grid=000099000590, num_basis=378, num_pairs=69747, num_threads=1
C  1.2844360000  -0.4841620000  -0.0000990000
C  -0.1336050000  0.1103250000  0.0000200000
C  -1.1864090000  -0.7809300000  -0.0001020000
O  -0.1874470000  1.3768160000  0.0002200000
H  1.8232010000  -0.1200940000  0.8807120000
H  1.2950750000  -1.5784680000  -0.0002690000
H  1.8231680000  -0.1198200000  -0.8808160000
H  -2.2080250000  -0.4152980000  -0.0000270000
H  -1.0203680000  -1.8522480000  -0.0002740000