37
charge=0, multiplicity=2, basis=def2-QZVPP, AUX_BASIS_CORR=rimp2-def2-QZVPPD, SCF_ALGORITHM=GDM, xc_grid=000099000590, mem_total=60000, num_basis=1596, num_pairs=834800, num_threads=16
C  1.9164470000  -1.6222190000  -1.1130730000
C  2.4330870000  -2.9109350000  -0.4769530000
C  2.1272060000  -2.8446860000  1.0214620000
H  3.5019440000  -3.0414140000  -0.6648350000
H  1.9211980000  -3.7748940000  -0.9154340000
C  0.6704930000  -2.5841890000  1.2129280000
H  2.7157150000  -2.0413630000  1.4737480000
H  2.4328050000  -3.7783650000  1.5107500000
C  0.4666940000  -1.4019460000  -0.7755680000
H  2.0317380000  -1.6655650000  -2.2016020000
H  2.5191630000  -0.7829480000  -0.7629010000
H  0.3343910000  -1.8841320000  1.9672720000
H  -0.0219320000  -3.3897850000  0.9899020000
C  -0.1046740000  -0.2023750000  -0.4394500000
H  -0.2008390000  -2.1776550000  -1.1361860000
H  1.4782000000  1.2074420000  -2.1394510000
C  1.4990780000  1.6047360000  -1.1315480000
C  0.7299930000  0.9920300000  -0.1437950000
C  0.7507910000  1.5298870000  1.1437650000
H  0.1445130000  1.0725560000  1.9169780000
C  1.5326140000  2.6360600000  1.4395990000
H  1.5424650000  3.0345710000  2.4471950000
C  2.2984740000  3.2344760000  0.4471370000
H  2.9060380000  4.1016840000  0.6761030000
C  2.2762980000  2.7176060000  -0.8405030000
H  2.8635630000  3.1834270000  -1.6229950000
H  -4.3499200000  -1.9189980000  0.3624650000
C  -3.7447240000  -1.0442370000  0.1549600000
C  -2.3742880000  -1.1811180000  0.0062300000
H  -1.9271730000  -2.1598650000  0.1158600000
C  -1.5592860000  -0.0715070000  -0.2543390000
C  -2.1778380000  1.1826800000  -0.3401130000
H  -1.5735390000  2.0594600000  -0.5343840000
C  -3.5488480000  1.3178360000  -0.1940130000
H  -4.0008000000  2.2993890000  -0.2752360000
C  -4.3421690000  0.2053980000  0.0534020000
H  -5.4136130000  0.3114680000  0.1719850000