18
charge=0, multiplicity=2, basis=def2-QZVPP, AUX_BASIS_CORR=rimp2-def2-QZVPPD, SCF_ALGORITHM=GDM, xc_grid=000099000590, mem_total=15000, num_basis=877, num_pairs=285085, num_threads=4
C  -2.2403740000  0.9128590000  0.3575560000
C  -2.8335220000  -0.3684020000  -0.2704050000
O  -2.6603670000  -0.4465430000  -1.5821440000
O  -3.4162080000  -1.1870050000  0.3799250000
C  -1.5389310000  0.5810080000  1.6192770000
F  0.0132730000  -0.4929150000  0.7671490000
S  1.3848810000  -1.3845550000  -0.0432930000
C  2.3865990000  0.1088000000  -0.1044940000
H  -3.1249690000  1.5192570000  0.6041780000
N  -1.4467060000  1.6428930000  -0.6268760000
H  -2.1435160000  0.3518960000  -1.8280380000
H  -1.9009630000  -0.2445670000  2.2142150000
H  -0.9035680000  1.3241060000  2.0814700000
F  1.7762780000  1.1093800000  -0.7687070000
F  2.6982790000  0.5910010000  1.0997880000
F  3.5213540000  -0.1790410000  -0.7480180000
H  -1.6168250000  2.6388230000  -0.6173810000
H  -0.4539970000  1.4700770000  -0.5193930000