9
charge=-1, multiplicity=1, basis=def2-QZVPP, AUX_BASIS_CORR=rimp2-def2-QZVPPD, SCF_ALGORITHM=GDM, xc_grid=000099000590, mem_total=3750, num_basis=378, num_pairs=69747, num_threads=1
C  -1.2844360000  -0.4841610000  -0.0000760000
C  0.1336050000  0.1103250000  0.0000160000
O  0.1874490000  1.3768160000  0.0001720000
C  1.1864090000  -0.7809310000  -0.0000810000
H  -1.8231720000  -0.1198480000  -0.8808030000
H  -1.2950760000  -1.5784670000  -0.0002090000
H  -1.8231970000  -0.1200620000  0.8807250000
H  2.2080250000  -0.4153000000  -0.0000220000
H  1.0203660000  -1.8522480000  -0.0002150000