29
charge=1, multiplicity=1, basis=def2-QZVPP, AUX_BASIS_CORR=rimp2-def2-QZVPPD, SCF_ALGORITHM=GDM, xc_grid=000099000590, mem_total=30000, num_basis=1302, num_pairs=532934, num_threads=8
O  -3.5108990000  0.0168820000  -0.0003980000
C  -2.4317470000  0.5494330000  0.0000260000
O  -2.2011970000  1.8381660000  0.0005640000
C  -3.3649560000  2.6937130000  0.0006120000
C  -1.1538220000  -0.2555320000  0.0000080000
C  1.1538220000  -0.2555320000  0.0000110000
C  1.2042750000  -1.6542810000  -0.0000690000
N  0.0000000000  -2.2602820000  -0.0001220000
C  -1.2042750000  -1.6542810000  -0.0000800000
C  2.4083160000  -2.5259930000  -0.0000960000
C  2.4317470000  0.5494320000  0.0001690000
O  2.2011980000  1.8381660000  -0.0008580000
C  3.3649570000  2.6937130000  -0.0007390000
C  -2.4083160000  -2.5259940000  -0.0001450000
O  3.5108990000  0.0168820000  0.0011470000
H  3.9615490000  2.5035710000  -0.8911620000
H  3.9604240000  2.5048460000  0.8907080000
H  2.9731120000  3.7052780000  -0.0017090000
H  3.0303820000  -2.3124360000  -0.8695240000
H  2.1275170000  -3.5802440000  -0.0007020000
H  3.0297600000  -2.3132670000  0.8699910000
H  -3.0299570000  -2.3129300000  -0.8700050000
H  -3.0301850000  -2.3127750000  0.8695110000
H  -2.1275170000  -3.5802450000  -0.0000120000
H  -3.9612080000  2.5038600000  0.8913250000
H  -3.9607650000  2.5045570000  -0.8905450000
H  -2.9731110000  3.7052780000  0.0011040000
N  0.0000000000  0.3878840000  0.0000340000
H  0.0000000000  -3.2775360000  -0.0001970000