52
charge=-1, multiplicity=1, basis=def2-QZVPP, mem_total=120000, AUX_BASIS_CORR=rimp2-def2-QZVPPD, SCF_ALGORITHM=GDM, xc_grid=000099000590, num_basis=2208, num_pairs=1333949, num_threads=32
C  4.4776150000  -2.0035050000  -0.4389770000
C  3.0492450000  -1.6590290000  -0.0169380000
H  2.3365490000  -2.2515420000  -0.5883610000
H  2.9065130000  -1.9069180000  1.0434850000
H  4.6832650000  -3.0632190000  -0.2559420000
H  4.5679860000  -1.8514280000  -1.5213440000
C  2.7568240000  -0.1715860000  -0.2225910000
C  1.3350790000  0.2418650000  0.1620210000
C  3.7701550000  0.6549890000  0.5808550000
C  3.4508930000  2.1204560000  0.5385240000
C  2.2526240000  2.5906060000  0.2165630000
C  1.0730570000  1.7367350000  -0.1561730000
C  0.6802350000  2.0141820000  -1.6141090000
H  1.4411040000  1.6468490000  -2.3058520000
H  -0.2609170000  1.5272630000  -1.8705640000
H  0.5663520000  3.0909270000  -1.7741930000
C  0.2593450000  -0.6087850000  -0.5227440000
C  -1.0233530000  -0.7213410000  0.1185670000
O  0.5189140000  -1.1177210000  -1.6111950000
C  -1.3928270000  -0.1757540000  1.4137840000
C  -2.1704670000  -1.3641530000  -0.4441760000
O  -2.3623910000  -1.9335170000  -1.5113500000
O  -0.7668600000  0.5320350000  2.2038050000
C  -3.3326820000  -1.2080370000  0.5626410000
H  -3.6898240000  -2.2135840000  0.8151440000
C  -4.5022230000  -0.4215220000  -0.0468890000
C  -4.0819500000  0.9850260000  -0.4847430000
H  -3.1854720000  0.9007640000  -1.1025390000
H  -3.7913200000  1.5686950000  0.3952480000
C  -5.1529560000  1.7372100000  -1.2693270000
H  -6.0393380000  1.9462100000  -0.6648990000
H  -4.7698500000  2.6954380000  -1.6289840000
H  -5.4726010000  1.1602970000  -2.1421520000
N  -2.6910180000  -0.5840090000  1.6961340000
H  -3.1912600000  -0.0626960000  2.3975040000
C  -5.7000240000  -0.4027820000  0.9029510000
H  -5.9594970000  -1.4162970000  1.2201310000
H  -5.4841420000  0.1837470000  1.8027480000
H  -6.5847880000  0.0347390000  0.4354430000
H  -4.7761470000  -0.9855050000  -0.9457730000
C  5.1986890000  0.3500350000  0.1248060000
H  5.9125390000  0.9510860000  0.6998620000
H  5.3077630000  0.6490270000  -0.9250230000
C  5.5147750000  -1.1370620000  0.2757160000
H  6.5203050000  -1.3541670000  -0.1003730000
H  5.5177530000  -1.3897970000  1.3434180000
H  4.2492250000  2.8113500000  0.8040800000
H  2.0895820000  3.6666230000  0.2007260000
H  1.2178000000  0.1414570000  1.2433220000
H  0.2349620000  2.0384670000  0.4790270000
H  2.9054770000  0.0486490000  -1.2866350000
H  3.6954700000  0.3299470000  1.6309070000