20
charge=-1, multiplicity=1, basis=def2-QZVPP, AUX_BASIS_CORR=rimp2-def2-QZVPPD, SCF_ALGORITHM=GDM, xc_grid=000099000590, mem_total=7500, num_basis=843, num_pairs=263771, num_threads=2
C  -2.6368890000  1.5499480000  0.1913010000
C  -2.5939750000  0.0261530000  0.1096890000
O  -3.3016110000  -0.5180060000  -0.7676020000
C  -1.6656460000  -0.6485160000  0.9144820000
C  -0.1572860000  -0.8212020000  -0.6555230000
C  1.0544740000  -0.6365280000  -0.4302320000
C  1.9147190000  -0.2399150000  0.6844920000
O  3.3201360000  -0.1652540000  0.3985020000
C  3.6104010000  0.7463310000  -0.6260580000
H  -3.6679610000  1.8686190000  0.3674640000
H  -1.9939880000  1.9537470000  0.9763960000
H  -2.3259990000  1.9638800000  -0.7720560000
H  -1.7601960000  -1.7235510000  1.0132610000
H  -1.1642390000  -0.1225080000  1.7187330000
H  -0.9227730000  -1.0819040000  -1.3662250000
H  1.5963770000  0.7422670000  1.0722830000
H  1.8444090000  -0.9621870000  1.5021270000
H  4.6868920000  0.7082510000  -0.8033510000
H  3.0723750000  0.4887310000  -1.5452720000
H  3.3321200000  1.7731010000  -0.3394660000