26
charge=0, multiplicity=2, basis=def2-QZVPP, AUX_BASIS_CORR=rimp2-def2-QZVPPD, SCF_ALGORITHM=GDM, xc_grid=000099000590, mem_total=30000, num_basis=1104, num_pairs=464881, num_threads=8
C  -2.3145620000  -0.6744340000  0.2919250000
C  -2.6440550000  0.7448930000  -0.1118200000
C  -1.5048000000  1.3924360000  -0.9324920000
H  -2.8510440000  1.3546870000  0.7715280000
H  -3.5438340000  0.7218520000  -0.7286370000
C  -0.2484180000  1.6058200000  -0.1580030000
H  -1.8666680000  2.3594690000  -1.2943000000
H  -1.3305990000  0.7713330000  -1.8124960000
C  0.8792750000  0.7598670000  -0.1494540000
H  -0.2125670000  2.4778910000  0.4887970000
N  -2.4443130000  -1.5849960000  -0.5811060000
C  -1.8246260000  -0.8842930000  1.6978710000
H  -0.9483620000  -0.2588360000  1.8849910000
H  -1.5595750000  -1.9264800000  1.8795220000
H  -2.5952090000  -0.5840170000  2.4132930000
C  0.9578580000  -0.4357410000  -0.9081760000
C  1.9994520000  1.0892110000  0.6574350000
C  3.1149250000  0.2813430000  0.7020860000
C  2.0811120000  -1.2362850000  -0.8546570000
C  3.1674840000  -0.8900280000  -0.0535460000
H  3.9554600000  0.5593180000  1.3270170000
H  1.9657070000  1.9994400000  1.2458720000
H  0.1217160000  -0.7341970000  -1.5261550000
H  4.0445780000  -1.5241510000  -0.0181440000
H  2.1151240000  -2.1455370000  -1.4434150000
H  -2.1664150000  -2.4925310000  -0.2071360000