51
charge=1, multiplicity=1, basis=def2-QZVPP, mem_total=120000, AUX_BASIS_CORR=rimp2-def2-QZVPPD, SCF_ALGORITHM=GDM, xc_grid=000099000590, num_basis=2124, num_pairs=1325403, num_threads=32
C  4.0585880000  -1.8734120000  0.2118460000
C  3.3001130000  -1.7130390000  -1.1122180000
C  2.3209470000  -0.1964950000  0.1724720000
C  3.3557780000  -0.8230030000  1.1201010000
H  3.9754630000  -2.8891400000  0.5935840000
H  5.1154880000  -1.6463780000  0.0753420000
H  2.8882510000  -1.2585240000  2.0026850000
H  4.0398340000  -0.0448850000  1.4578660000
C  3.0421480000  -0.2022470000  -1.1723260000
H  2.4138590000  0.1140610000  -2.0050440000
H  3.9520840000  0.3945530000  -1.1485160000
H  3.7422680000  -2.1956340000  -1.9790350000
H  1.8180380000  0.7040710000  0.5046600000
N  1.3166600000  -1.2726810000  -0.0954390000
N  1.9353320000  -2.2591540000  -0.8802890000
C  -1.6773570000  1.5663880000  -0.8894770000
C  -0.4822620000  2.1569340000  -0.2655370000
C  -0.3330850000  2.2765040000  1.1210780000
C  0.5486160000  2.6333890000  -1.0796830000
C  0.7932610000  2.8733270000  1.6680400000
H  -1.1138170000  1.9171880000  1.7817130000
C  1.6742760000  3.2352470000  -0.5343680000
H  0.4465780000  2.5610530000  -2.1570100000
C  1.8020600000  3.3586860000  0.8427850000
H  0.8805910000  2.9697210000  2.7435520000
H  2.4469740000  3.6223660000  -1.1877740000
H  2.6729960000  3.8389750000  1.2709690000
C  -2.8743470000  1.4322650000  -0.3216250000
C  0.1269870000  -1.3633110000  0.3587650000
C  -4.0820100000  0.8646890000  -0.9957900000
H  -4.8402550000  1.6519850000  -1.0645190000
H  -3.8289350000  0.5850410000  -2.0229280000
C  -0.7480290000  -2.5289470000  0.0978150000
H  -0.1174010000  -3.4230500000  0.0621160000
H  -1.1687930000  -2.4183050000  -0.9099120000
C  -1.8745780000  -2.6739920000  1.1273540000
H  -2.3666650000  -3.6329240000  0.9478730000
H  -1.4335720000  -2.7430330000  2.1257820000
C  -2.9103430000  -1.5516850000  1.0886350000
H  -3.5571080000  -1.6480820000  1.9645880000
H  -2.4170850000  -0.5809760000  1.1939030000
C  -4.7101230000  -0.3408930000  -0.2806730000
H  -5.6075040000  -0.6201440000  -0.8364900000
H  -5.0538350000  -0.0437150000  0.7158360000
C  -3.7843620000  -1.5562320000  -0.1657050000
H  -4.3809170000  -2.4728710000  -0.1616110000
H  -3.1650350000  -1.6052510000  -1.0688720000
H  1.4070630000  -2.3901190000  -1.7389640000
H  -0.2039900000  -0.5184050000  0.9529680000
H  -1.5627500000  1.2668720000  -1.9292230000
H  -3.0234400000  1.7833380000  0.6976190000