40
charge=1, multiplicity=1, basis=def2-QZVPP, mem_total=60000, AUX_BASIS_CORR=rimp2-def2-QZVPPD, SCF_ALGORITHM=GDM, xc_grid=000099000590, num_basis=1605, num_pairs=904823, num_threads=16
C  3.4681450000  -0.4677060000  0.0355850000
C  2.3835190000  -1.2545980000  -0.6842270000
C  1.0009530000  -1.0673170000  -0.0436960000
H  2.3368860000  -0.9383580000  -1.7321730000
H  2.6239690000  -2.3189010000  -0.6913160000
C  0.9530500000  -1.7671400000  1.3262890000
H  1.1126280000  -2.8371910000  1.1842580000
H  -0.0028940000  -1.6409770000  1.8309100000
H  1.7323950000  -1.4032840000  1.9980480000
C  0.6869740000  0.4276780000  0.0946760000
C  1.7093780000  1.3945210000  0.1157730000
C  3.1577980000  1.0225660000  0.0033560000
H  4.4386220000  -0.6383430000  -0.4309640000
H  3.5674360000  -0.8066220000  1.0687280000
C  1.4090810000  2.8640750000  0.0941270000
C  -0.0837100000  -1.6450990000  -0.9719390000
C  -1.5047880000  -1.5444080000  -0.4120470000
H  0.1682620000  -2.6883850000  -1.1730490000
H  -0.0221040000  -1.1316390000  -1.9366960000
C  -0.7557200000  0.8526260000  -0.0455230000
H  1.1677020000  0.8294530000  1.2238430000
C  -1.7693230000  -0.2246950000  0.3506220000
H  -0.8719110000  1.1089560000  -1.1058190000
H  -0.9591140000  1.7707580000  0.5045970000
H  -1.7125540000  -2.3789420000  0.2586400000
H  -2.2087720000  -1.6471500000  -1.2383780000
C  -3.1911400000  0.2664920000  0.1720810000
H  -1.6397000000  -0.4073210000  1.4194110000
C  -4.0504560000  0.2032040000  1.1818680000
H  -3.7592990000  -0.1760940000  2.1548940000
H  -5.0802640000  0.5202400000  1.0705520000
C  -3.5824320000  0.8022990000  -1.1778040000
H  -3.3100780000  0.1183120000  -1.9861820000
H  -3.0943590000  1.7589910000  -1.3880550000
H  -4.6571800000  0.9686100000  -1.2322490000
H  3.4502480000  1.4546810000  -0.9636010000
H  3.7310500000  1.5817850000  0.7465340000
H  0.5552720000  3.1415130000  0.7084760000
H  1.1699480000  3.1443980000  -0.9364430000
H  2.2758400000  3.4405190000  0.4111860000