37
charge=0, multiplicity=2, basis=def2-QZVPP, mem_total=60000, AUX_BASIS_CORR=rimp2-def2-QZVPPD, SCF_ALGORITHM=GDM, xc_grid=000099000590, num_basis=1596, num_pairs=833728, num_threads=16
C  -1.6298050000  -1.8114570000  1.3046340000
C  -2.1943890000  -2.8149450000  0.2883360000
C  -2.3555860000  -2.2188250000  -1.1242130000
H  -3.1681140000  -3.1687010000  0.6400240000
H  -1.5411220000  -3.6924840000  0.2347290000
C  -3.3683680000  -1.1314180000  -1.1965800000
H  -2.6406770000  -3.0346810000  -1.7990690000
H  -1.3847610000  -1.8505720000  -1.4660810000
C  -0.1932920000  -1.4886920000  1.0267560000
H  -1.7086090000  -2.2431930000  2.3074690000
H  -2.2472040000  -0.9136770000  1.2939430000
C  0.3161630000  -0.3554790000  0.5336670000
H  0.0218260000  0.9265360000  -1.8092400000
C  -0.5617810000  1.3878580000  -1.0210840000
C  -0.5148180000  0.8508010000  0.2655160000
C  -1.2504780000  1.4693580000  1.2733930000
H  -1.2005120000  1.0763710000  2.2817230000
C  -2.0351530000  2.5813980000  0.9986570000
H  -2.6011160000  3.0501910000  1.7948400000
C  -2.0916290000  3.0934400000  -0.2895580000
H  -2.7054250000  3.9595680000  -0.5053910000
C  -1.3490340000  2.4941080000  -1.2993950000
H  -1.3834820000  2.8904480000  -2.3071870000
H  4.3277400000  1.9738780000  0.3646980000
C  3.8084350000  1.0439980000  0.1654500000
C  2.4531800000  0.9422060000  0.4386030000
H  1.9207310000  1.7934780000  0.8449620000
C  1.7625580000  -0.2482690000  0.2043750000
C  2.4647200000  -1.3233600000  -0.3421490000
H  1.9370650000  -2.2413300000  -0.5704720000
C  3.8200240000  -1.2220090000  -0.6190060000
H  4.3449710000  -2.0670220000  -1.0486200000
C  4.4987980000  -0.0387610000  -0.3627720000
H  5.5564050000  0.0425410000  -0.5826480000
H  -3.0823820000  -0.0894060000  -1.2465230000
H  -4.4227100000  -1.3647680000  -1.1024830000
H  0.5001040000  -2.3068760000  1.2075440000