26
charge=0, multiplicity=2, basis=def2-QZVPP, AUX_BASIS_CORR=rimp2-def2-QZVPPD, SCF_ALGORITHM=GDM, xc_grid=000099000590, mem_total=30000, num_basis=1144, num_pairs=426877, num_threads=8
C  4.4564530000  -0.3378340000  -0.0001090000
C  3.2850440000  0.6109920000  -0.0001410000
C  1.9216300000  -0.0624500000  0.0000810000
H  3.3807950000  1.2696770000  -0.8717480000
H  3.3809520000  1.2699540000  0.8712390000
C  0.7975760000  0.9169860000  0.0000570000
H  1.8536760000  -0.7304420000  0.8662030000
H  1.8535110000  -0.7306850000  -0.8658350000
C  -0.5641510000  0.5599960000  0.0000510000
H  1.0356810000  1.9764170000  0.0000720000
N  4.2509730000  -1.5884070000  -0.0000600000
C  5.8145180000  0.3155690000  -0.0001220000
H  5.9300010000  0.9555140000  -0.8787530000
H  6.6141090000  -0.4259070000  -0.0003660000
H  5.9301770000  0.9551100000  0.8787820000
C  -0.9932290000  -0.7906200000  0.0000660000
C  -1.5714380000  1.5573280000  0.0000320000
C  -2.9094900000  1.2334670000  0.0000240000
C  -2.3333950000  -1.1172500000  0.0000590000
C  -3.2878050000  -0.1065160000  0.0000370000
H  -3.6668750000  2.0062670000  0.0000080000
H  -1.2753100000  2.6000190000  0.0000210000
H  -0.2585140000  -1.5853420000  0.0000860000
Cl  -4.9830280000  -0.5212960000  0.0000280000
H  -2.6480300000  -2.1526460000  0.0000720000
H  5.1302160000  -2.1050750000  -0.0000580000