55
charge=1, multiplicity=1, basis=def2-QZVPP, mem_total=120000, AUX_BASIS_CORR=rimp2-def2-QZVPPD, SCF_ALGORITHM=GDM, xc_grid=000099000590, num_basis=2298, num_pairs=1475584, num_threads=32
C  1.3828810000  1.2813100000  0.6552140000
C  0.4087970000  -0.9236410000  -0.4215490000
C  1.8921450000  -1.3034540000  -0.4807920000
C  2.7520590000  -0.1964390000  -1.0808220000
C  2.4447020000  1.1898970000  -0.4623070000
H  2.2443700000  -1.5465520000  0.5207930000
H  1.9868770000  -2.2051360000  -1.0886990000
H  2.5041460000  -0.1336800000  -2.1403080000
H  3.3616950000  1.6058660000  -0.0481500000
H  2.1421490000  1.8585170000  -1.2711070000
N  0.3090670000  0.2710230000  0.4465480000
O  -0.7370560000  0.3954900000  1.1742960000
C  1.9696500000  1.0453150000  2.0533130000
H  2.5058570000  0.1024100000  2.1116740000
H  2.6854750000  1.8379960000  2.2774340000
H  1.1744680000  1.0758330000  2.7991220000
C  0.7493980000  2.6720460000  0.5971960000
H  0.0436410000  2.8253670000  1.4139680000
H  1.5362070000  3.4203660000  0.6955000000
H  0.2502410000  2.8329930000  -0.3602790000
C  -0.3855090000  -2.0700870000  0.1967940000
H  -0.0338760000  -2.2881500000  1.2056840000
H  -1.4518760000  -1.8561770000  0.2393530000
H  -0.2441380000  -2.9595410000  -0.4178420000
C  -0.1563200000  -0.5767530000  -1.8089150000
H  -0.0150250000  -1.4246280000  -2.4818470000
H  -1.2235310000  -0.3708490000  -1.7424190000
H  0.3281770000  0.2958500000  -2.2471650000
C  -2.8661840000  1.3783200000  0.1706400000
H  -3.0379520000  2.0580400000  1.0091340000
H  -1.6240770000  0.9076160000  0.6751210000
C  -3.5586570000  0.1072010000  0.1671670000
C  -3.8747480000  -0.5483750000  -1.0298700000
C  -3.8632140000  -0.4939810000  1.3971270000
C  -4.4912650000  -1.7840230000  -0.9895900000
H  -3.6554660000  -0.0698380000  -1.9750370000
C  -4.4748440000  -1.7322080000  1.4259640000
H  -3.6155360000  0.0124110000  2.3231150000
C  -4.7856670000  -2.3788580000  0.2342250000
H  -4.7523300000  -2.2871460000  -1.9118220000
H  -4.7141160000  -2.1956070000  2.3742640000
H  -5.2688110000  -3.3477130000  0.2586070000
O  -2.5813090000  1.9408470000  -0.9986220000
C  -2.4786390000  3.3742800000  -1.0373170000
H  -1.9514100000  3.6205420000  -1.9542960000
H  -1.9253360000  3.7426240000  -0.1732590000
H  -3.4818210000  3.8010970000  -1.0572050000
N  4.1693120000  -0.5358270000  -1.0727210000
C  4.8971030000  -0.7460460000  0.0588970000
H  4.6376900000  -0.6112040000  -1.9599530000
O  4.3941580000  -0.6612370000  1.1654080000
C  6.3517110000  -1.0838990000  -0.1371770000
H  6.6565390000  -1.1182980000  -1.1830800000
H  6.9541760000  -0.3424750000  0.3883300000
H  6.5482130000  -2.0513290000  0.3257390000