39
charge=0, multiplicity=1, basis=def2-QZVPP, AUX_BASIS_CORR=rimp2-def2-QZVPPD, SCF_ALGORITHM=GDM, xc_grid=000099000590, mem_total=60000, num_basis=1737, num_pairs=1052166, num_threads=16
C  2.2831130000  -1.2072190000  0.6279150000
C  1.7743650000  -0.9549440000  -0.6608800000
C  0.5883810000  -1.5622340000  -1.1586820000
C  -0.0106260000  -0.9719470000  -2.4057100000
C  0.0019460000  -2.5550090000  -0.4256590000
C  -1.2954750000  -3.2213550000  -0.6944530000
C  -0.1948520000  -1.1316690000  1.9261290000
C  1.0479830000  -0.4686560000  1.9131460000
C  1.0856570000  0.9646280000  1.4828260000
O  2.0231980000  1.6795380000  1.7747920000
C  -0.0333950000  1.4331860000  0.6289510000
C  -1.2038790000  0.6652930000  0.5385550000
C  -1.3422360000  -0.6105550000  1.2805770000
O  -2.4568210000  -1.1860080000  1.3101220000
C  -2.2602870000  1.1289800000  -0.2632450000
C  -2.1057060000  2.3140060000  -0.9863910000
C  -0.9382340000  3.0472860000  -0.8895900000
C  0.1011340000  2.6209200000  -0.0709800000
O  -3.4138610000  0.4629810000  -0.3645330000
H  -0.2224310000  0.0891630000  -2.2633430000
H  0.6899420000  -1.0471380000  -3.2391130000
H  -0.9354090000  -1.4687530000  -2.6851280000
H  -2.0366120000  -2.8540580000  0.0300990000
H  -1.6837630000  -3.0302640000  -1.6924720000
H  -1.2093520000  -4.3000190000  -0.5473720000
H  1.7123930000  -0.6520010000  2.7514710000
H  -2.9292990000  2.6414320000  -1.6083570000
H  -0.8396100000  3.9682790000  -1.4515250000
H  -0.3338530000  -2.0279470000  2.5175060000
H  0.5645930000  -2.9869820000  0.3880960000
H  2.2212210000  -2.2267270000  0.9784360000
H  1.0125390000  3.1936230000  0.0338240000
H  -3.3469380000  -0.3006300000  0.2705410000
O  2.2378980000  0.0366480000  -1.4314020000
H  3.2132710000  -0.7263440000  0.8996380000
C  3.4557690000  0.7014870000  -1.1029070000
H  3.3576120000  1.2730790000  -0.1800690000
H  3.6471300000  1.3753630000  -1.9338420000
H  4.2733140000  -0.0185190000  -1.0178450000