22
charge=1, multiplicity=1, basis=def2-QZVPP, AUX_BASIS_CORR=rimp2-def2-QZVPPD, SCF_ALGORITHM=GDM, xc_grid=000099000590, mem_total=15000, num_basis=957, num_pairs=326652, num_threads=4
C  2.2310290000  0.5424560000  0.0000020000
C  0.8785370000  0.2342980000  0.0000010000
C  -0.0548090000  1.2985920000  -0.0000050000
C  0.4038630000  -1.1075720000  0.0000040000
C  -1.4006230000  1.0550010000  -0.0000050000
H  0.3019400000  2.3223580000  -0.0000080000
C  -0.9309330000  -1.3559660000  0.0000030000
H  1.1148790000  -1.9234640000  0.0000080000
C  -1.8536450000  -0.2799670000  -0.0000020000
H  -2.1005290000  1.8770470000  -0.0000080000
H  -1.3274990000  -2.3623920000  0.0000060000
O  3.1374730000  -0.3632120000  -0.0000250000
C  4.5419280000  -0.0042160000  0.0000430000
H  4.6525700000  1.0797860000  -0.0003780000
H  4.9795980000  -0.4410790000  0.8938220000
H  4.9798270000  -0.4417840000  -0.8932760000
O  -3.1180670000  -0.6279910000  -0.0000030000
C  -4.1558980000  0.3633590000  -0.0000180000
H  -5.0855050000  -0.1964310000  -0.0000300000
H  -4.0922020000  0.9781560000  0.8984960000
H  -4.0921790000  0.9781540000  -0.8985330000
H  2.5571600000  1.5833660000  0.0000020000