25
charge=0, multiplicity=1, basis=def2-QZVPP, mem_total=15000, AUX_BASIS_CORR=rimp2-def2-QZVPPD, SCF_ALGORITHM=GDM, xc_grid=000099000590, num_basis=1074, num_pairs=410914, num_threads=4
C  1.4946670000  1.2032470000  -0.2214120000
C  1.0110190000  -0.0919960000  -0.1337070000
O  -0.6526040000  -1.4762380000  -0.9694160000
C  -1.3122290000  0.4185350000  0.0912620000
N  -0.3954750000  -0.3874070000  -0.3524260000
H  0.8336700000  2.0190240000  -0.4831280000
C  2.8459210000  1.4350500000  -0.0036740000
C  3.6972460000  0.3791050000  0.2881470000
H  4.7514810000  0.5634970000  0.4540540000
C  3.1988210000  -0.9165390000  0.3506890000
H  3.8632800000  -1.7438900000  0.5669290000
C  1.8527630000  -1.1594040000  0.1304800000
H  1.4368090000  -2.1571550000  0.1454300000
H  3.2342110000  2.4431710000  -0.0786510000
C  -2.7549000000  0.1331070000  -0.1440830000
H  -2.8332280000  -0.2463840000  -1.1681870000
C  -3.5867360000  1.4046390000  0.0033920000
H  -4.6392020000  1.1977120000  -0.1988560000
H  -3.2585270000  2.1828110000  -0.6894730000
H  -3.5179340000  1.8037590000  1.0197670000
C  -3.2445760000  -0.9800890000  0.7927450000
H  -3.1909830000  -0.6609770000  1.8370890000
H  -2.6394060000  -1.8773240000  0.6641960000
H  -4.2839880000  -1.2304320000  0.5686770000
H  -0.9789990000  1.2740090000  0.6614290000