43
charge=0, multiplicity=1, basis=def2-QZVPP, mem_total=60000, AUX_BASIS_CORR=rimp2-def2-QZVPPD, SCF_ALGORITHM=GDM, xc_grid=000099000590, num_basis=1884, num_pairs=989495, num_threads=16
C  2.1312560000  -1.9396020000  0.0393110000
C  -1.6113070000  -0.3846060000  0.9073200000
C  -0.5271310000  0.1018710000  0.2653350000
C  2.6368890000  -0.6485990000  0.0551450000
O  0.7342450000  0.1338200000  1.2007720000
C  1.6346550000  1.5116140000  -0.3092210000
H  2.2926100000  1.5707480000  -1.1712610000
N  1.7827810000  0.4387480000  0.4219180000
H  1.1003620000  -2.1177150000  0.3119450000
O  -0.2590970000  0.5490120000  -0.8632320000
C  2.9674700000  -2.9771380000  -0.3406040000
C  4.2874520000  -2.7271250000  -0.6941910000
H  4.9336090000  -3.5446180000  -0.9885240000
C  4.7813120000  -1.4308090000  -0.6587460000
H  5.8145940000  -1.2333790000  -0.9149610000
C  3.9581970000  -0.3835650000  -0.2721440000
H  4.3449620000  0.6257580000  -0.2030320000
H  2.5812560000  -3.9883390000  -0.3651690000
C  -2.9031320000  -0.4663390000  0.2065590000
C  -4.0530220000  -0.8605900000  0.9076780000
C  -3.0620910000  -0.1686310000  -1.1578020000
C  -5.2908960000  -0.9448540000  0.2873950000
H  -3.9862170000  -1.1031730000  1.9592810000
C  -4.3004650000  -0.2539930000  -1.7719620000
H  -2.1999020000  0.1279120000  -1.7362540000
C  -5.4278240000  -0.6412740000  -1.0584770000
H  -6.1549930000  -1.2513940000  0.8661140000
H  -4.3837400000  -0.0177060000  -2.8270080000
H  -6.3937390000  -0.7078290000  -1.5444480000
C  -1.5377730000  -0.8550920000  2.3367970000
H  -1.8887820000  -1.8876510000  2.4310970000
H  -2.1663400000  -0.2438180000  2.9926640000
H  -0.5243480000  -0.8120810000  2.7250250000
C  0.9755440000  2.7656300000  0.1569840000
H  0.1844180000  2.5092650000  0.8600970000
C  0.3855670000  3.5344780000  -1.0212150000
H  -0.0717090000  4.4598290000  -0.6677390000
H  -0.3726070000  2.9365510000  -1.5235610000
H  1.1612130000  3.8026390000  -1.7451640000
C  2.0440860000  3.5890350000  0.8958150000
H  2.8769810000  3.8470440000  0.2356460000
H  2.4385970000  3.0501870000  1.7586960000
H  1.6004140000  4.5214100000  1.2489470000