10
charge=0, multiplicity=1, basis=def2-QZVPP, mem_total=3750, AUX_BASIS_CORR=rimp2-def2-QZVPPD, SCF_ALGORITHM=GDM, xc_grid=000099000590, num_basis=408, num_pairs=81149, num_threads=1
C  1.2842790000  -0.6101430000  -0.0018100000
C  0.0000000000  0.1836210000  0.0000020000
O  0.0000000000  1.3904250000  0.0000000000
C  -1.2842790000  -0.6101430000  0.0018100000
H  1.2831550000  -1.3422120000  -0.8130570000
H  2.1355120000  0.0595130000  -0.1049910000
H  1.3719500000  -1.1690020000  0.9340250000
H  -2.1355110000  0.0595100000  0.1050140000
H  -1.2831470000  -1.3422320000  0.8130400000
H  -1.3719580000  -1.1689800000  -0.9340380000