12
charge=0, multiplicity=2, basis=def2-QZVPP, AUX_BASIS_CORR=rimp2-def2-QZVPPD, SCF_ALGORITHM=GDM, xc_grid=000099000590, mem_total=3750, num_basis=549, num_pairs=139805, num_threads=1
O  -2.2880650000  0.0000010000  -0.0000760000
C  -1.0427900000  -0.0000010000  -0.0000350000
C  -0.2888110000  -1.2355490000  -0.0000950000
C  1.0802350000  -1.2200940000  -0.0000510000
C  1.7743020000  0.0000000000  0.0000580000
C  1.0802350000  1.2200940000  0.0001230000
C  -0.2888110000  1.2355480000  0.0000780000
H  -0.8560250000  2.1579260000  0.0001220000
H  1.6364940000  -2.1497250000  -0.0001010000
H  -0.8560230000  -2.1579290000  -0.0001750000
H  2.8574130000  -0.0000010000  0.0000920000
H  1.6364940000  2.1497260000  0.0002100000