15
charge=0, multiplicity=1, basis=def2-QZVPP, AUX_BASIS_CORR=rimp2-def2-QZVPPD, SCF_ALGORITHM=GDM, xc_grid=000099000590, mem_total=7500, num_basis=666, num_pairs=181504, num_threads=2
C  2.8913840000  0.8921320000  0.0000900000
C  1.8144190000  -0.1646580000  0.0000130000
O  2.0676890000  -1.3550280000  0.0001080000
N  0.5349370000  0.2894150000  -0.0001300000
H  0.3172970000  1.2744220000  -0.0000820000
C  -0.5716740000  -0.6283350000  -0.0000590000
C  -1.8608350000  0.1431750000  -0.0000290000
H  -0.5498210000  -1.2859410000  -0.8739260000
H  -0.5497550000  -1.2858820000  0.8738540000
O  -1.9465480000  1.3420670000  0.0000160000
O  -2.9236800000  -0.6706000000  -0.0000500000
H  -3.7194690000  -0.1199160000  -0.0000140000
H  2.4995640000  1.9095450000  -0.0004520000
H  3.5194740000  0.7479070000  -0.8793720000
H  3.5186970000  0.7485710000  0.8802220000