18
charge=0, multiplicity=2, basis=def2-QZVPP, AUX_BASIS_CORR=rimp2-def2-QZVPPD, SCF_ALGORITHM=GDM, xc_grid=000099000590, mem_total=7500, num_basis=783, num_pairs=256547, num_threads=2
C  0.0000000000  -1.3700880000  1.2199900000
C  0.0000000000  0.0017940000  1.2562310000
C  0.0000000000  0.7456710000  0.0000000000
C  0.0000000000  0.0017940000  -1.2562310000
C  0.0000000000  -1.3700880000  -1.2199900000
C  0.0000000000  -2.0585930000  0.0000000000
H  0.0000000000  -1.9314670000  2.1475350000
H  0.0000000000  -1.9314670000  -2.1475350000
H  0.0000000000  -3.1420120000  0.0000000000
O  0.0000010000  1.9877880000  0.0000000000
C  0.0000000000  0.7833940000  -2.5275730000
H  0.0000100000  0.1236340000  -3.3952700000
H  -0.8730130000  1.4379160000  -2.5762070000
H  0.8730000000  1.4379330000  -2.5761970000
C  0.0000000000  0.7833940000  2.5275730000
H  -0.8730130000  1.4379160000  2.5762070000
H  0.0000100000  0.1236340000  3.3952700000
H  0.8730000000  1.4379330000  2.5761970000