15
charge=-1, multiplicity=1, basis=def2-QZVPP, mem_total=7500, AUX_BASIS_CORR=rimp2-def2-QZVPPD, SCF_ALGORITHM=GDM, xc_grid=000099000590, num_basis=720, num_pairs=215901, num_threads=2
C  -1.4948590000  1.2138530000  0.0000000000
C  -0.1294760000  1.2327860000  0.0000020000
C  0.6322250000  0.0426400000  0.0000040000
C  -0.0742050000  -1.1816000000  0.0000000000
C  -1.4400760000  -1.2212280000  -0.0000010000
C  -2.2508670000  -0.0214960000  0.0000060000
H  0.4072270000  2.1756870000  0.0000010000
H  0.4917990000  -2.1063680000  -0.0000010000
H  -1.9701100000  -2.1678920000  -0.0000060000
C  2.0630740000  0.1186710000  0.0000070000
O  2.7607980000  1.1233300000  0.0000010000
O  2.6987880000  -1.1055970000  -0.0000020000
H  3.6364400000  -0.8807830000  -0.0000050000
O  -3.5013120000  -0.0500350000  -0.0000120000
H  -2.0664280000  2.1360160000  -0.0000030000