3
charge=0, multiplicity=1, basis=def2-QZVPP, AUX_BASIS_CORR=rimp2-def2-QZVPPD, SCF_ALGORITHM=GDM, xc_grid=000099000590, mem_total=3750, num_basis=157, num_pairs=12667, num_threads=1
F  0.0516210000  1.0867470000  0.0000000000
S  0.0516210000  -0.5680970000  0.0000000000
H  -1.2905250000  -0.6911650000  0.0000000000