20
charge=-1, multiplicity=1, basis=def2-QZVPP, mem_total=15000, AUX_BASIS_CORR=rimp2-def2-QZVPPD, SCF_ALGORITHM=GDM, xc_grid=000099000590, num_basis=870, num_pairs=330259, num_threads=4
C  1.3250580000  -0.5754680000  0.3403540000
C  0.8367650000  0.5795610000  -0.5511450000
C  -0.6243060000  0.9291520000  -0.3335170000
C  -1.4572970000  -0.3482970000  -0.5223010000
O  -0.9896010000  -1.3913880000  0.3089220000
C  0.3814800000  -1.7511660000  0.0580050000
H  0.4993480000  -2.0823430000  -0.9850310000
O  2.6400470000  -0.7774680000  0.1401810000
H  1.0910940000  -0.2813290000  1.4001840000
O  1.6999510000  1.6780790000  -0.3377820000
H  0.9452800000  0.2317840000  -1.5928410000
H  2.5297140000  1.1876060000  -0.1349360000
O  -2.7911530000  -0.1013050000  -0.2139930000
H  -1.4126550000  -0.6788520000  -1.5692560000
H  -2.7522850000  0.5427460000  0.5125160000
N  -0.9615890000  1.4923760000  0.9795190000
H  -0.9587120000  1.6521180000  -1.0863330000
H  -0.5378960000  0.9088180000  1.6946050000
H  -0.5164820000  2.3990440000  1.0616600000
H  0.5995590000  -2.5922620000  0.7158050000