20
charge=0, multiplicity=2, basis=def2-QZVPP, AUX_BASIS_CORR=rimp2-def2-QZVPPD, SCF_ALGORITHM=GDM, xc_grid=000099000590, mem_total=7500, num_basis=789, num_pairs=249033, num_threads=2
C  -2.5302060000  0.0767090000  -0.2454220000
C  -2.1710900000  1.4818840000  0.0715060000
C  -0.1718610000  -0.8340420000  -0.2893760000
C  -1.5393350000  -0.9581810000  0.3093590000
C  0.9414710000  -0.5771330000  0.3845240000
C  2.3052110000  -0.4315480000  -0.2190320000
C  2.9046660000  0.9554360000  0.0194950000
H  -2.5968340000  -0.0569700000  -1.3380630000
H  -3.5363500000  -0.1453860000  0.1273220000
H  -1.4766010000  -0.8574810000  1.3965760000
H  -1.9346960000  -1.9588630000  0.1042540000
H  2.2521460000  -0.6358520000  -1.2920580000
H  2.9731900000  -1.1866740000  0.2103940000
H  2.2873870000  1.7296110000  -0.4415010000
H  3.9108560000  1.0288010000  -0.3987230000
H  2.9708190000  1.1763140000  1.0879630000
H  0.8796040000  -0.4432570000  1.4644560000
H  -1.1426330000  1.7578040000  0.2657070000
H  -2.9083820000  2.2708460000  -0.0018620000
H  -0.1116430000  -0.9576460000  -1.3707830000