23
charge=0, multiplicity=2, basis=def2-QZVPP, AUX_BASIS_CORR=rimp2-def2-QZVPPD, SCF_ALGORITHM=GDM, xc_grid=000099000590, mem_total=15000, num_basis=906, num_pairs=333770, num_threads=4
C  -1.6829000000  -0.5303170000  1.3601020000
C  -1.3549010000  -0.0109260000  -0.0032590000
C  0.0754240000  -0.4259240000  -0.4051380000
C  1.1940150000  0.1410000000  0.4720590000
H  0.2516390000  -0.1286860000  -1.4442670000
H  0.1298730000  -1.5205640000  -0.3870390000
C  2.5291610000  -0.4410370000  0.1250560000
H  -1.3937540000  -1.5356130000  1.6455240000
H  -2.3517370000  0.0105820000  2.0184660000
H  0.9644130000  -0.0777490000  1.5213110000
H  1.2392520000  1.2286070000  0.3777880000
C  -2.3294100000  -0.6389590000  -1.0225590000
H  -2.1159190000  -0.2706760000  -2.0304490000
H  -3.3638970000  -0.3875560000  -0.7795040000
H  -2.2382930000  -1.7274160000  -1.0317740000
C  -1.5189380000  1.5130940000  -0.0442660000
H  -1.2509490000  1.9058310000  -1.0286990000
H  -0.8938500000  2.0068490000  0.7013060000
H  -2.5566130000  1.7908380000  0.1564020000
C  3.5741350000  0.2486890000  -0.3096280000
H  2.6198620000  -1.5204240000  0.2350810000
H  3.5266370000  1.3255480000  -0.4371800000
H  4.5138160000  -0.2332860000  -0.5511720000