22
charge=0, multiplicity=1, basis=def2-QZVPP, mem_total=15000, AUX_BASIS_CORR=rimp2-def2-QZVPPD, SCF_ALGORITHM=GDM, xc_grid=000099000590, num_basis=1011, num_pairs=371523, num_threads=4
C  3.4812120000  -1.1626150000  0.0031020000
O  2.1021880000  -1.5283280000  0.0056710000
H  4.0249400000  -2.1037920000  -0.0011820000
H  3.7271060000  -0.5816640000  0.8921730000
H  3.7221440000  -0.5752840000  -0.8829890000
C  1.2047100000  -0.5513640000  -0.0001970000
C  -0.1606430000  -0.8679150000  -0.0028860000
N  1.5939510000  0.7083440000  -0.0012090000
C  0.6566220000  1.6810670000  -0.0070730000
C  -1.0116620000  0.2345840000  -0.0018460000
N  -0.6612620000  1.5201710000  -0.0004400000
N  -0.8853640000  -2.0432700000  -0.0024190000
C  -2.1236740000  -1.6545940000  -0.0013010000
N  -2.2768920000  -0.2817270000  -0.0019460000
H  -2.9842870000  -2.3079580000  -0.0021220000
C  -3.5074330000  0.4797420000  0.0082070000
H  -3.6071380000  1.0365350000  0.9406880000
H  -4.3461040000  -0.2075350000  -0.0912810000
H  -3.5188360000  1.1839310000  -0.8234930000
N  1.1347360000  2.9585970000  -0.0493220000
H  2.1069010000  3.0944290000  0.1667970000
H  0.4868140000  3.6997280000  0.1553590000