16
charge=0, multiplicity=1, basis=def2-QZVPP, AUX_BASIS_CORR=rimp2-def2-QZVPPD, SCF_ALGORITHM=GDM, xc_grid=000099000590, mem_total=7500, num_basis=804, num_pairs=263954, num_threads=2
C  -0.5153890000  0.7055900000  0.0072060000
C  -0.5317080000  -0.6807800000  0.0077700000
N  -1.6142490000  -1.4304240000  0.0051090000
C  -2.7674620000  -0.7574840000  -0.0066820000
C  -2.8622790000  0.6331560000  -0.0101210000
C  -1.7054800000  1.4027460000  0.0002180000
C  0.8962170000  1.1795450000  0.0180360000
C  0.8879120000  -1.1816220000  0.0158550000
H  -3.6682000000  -1.3616210000  -0.0130430000
H  -3.8389360000  1.0992310000  -0.0203780000
H  -1.7283800000  2.4853190000  -0.0000190000
O  1.3242720000  -2.2893830000  -0.0337520000
O  1.3298110000  2.2937090000  -0.0295300000
N  1.6497670000  0.0005190000  0.1126510000
O  2.9886750000  -0.0015110000  -0.1482200000
H  3.4339760000  -0.0430310000  0.7074490000