58
charge=0, multiplicity=2, basis=def2-QZVPP, mem_total=120000, AUX_BASIS_CORR=rimp2-def2-QZVPPD, SCF_ALGORITHM=GDM, xc_grid=000099000590, num_basis=2305, num_pairs=1463996, num_threads=32
Si  -0.7258520000  0.0207580000  -0.0998630000
Si  -2.8275680000  -0.7217540000  -0.8091520000
Si  -0.7457610000  2.1166180000  0.9279850000
Si  0.3726120000  -1.6368700000  1.1433050000
C  1.3408520000  -2.7798360000  -0.0002130000
H  2.1294210000  -2.2391760000  -0.5268720000
H  0.6879700000  -3.2305350000  -0.7517140000
H  1.8097510000  -3.5904630000  0.5649990000
C  1.5510000000  -0.8956550000  2.4158980000
H  2.3202590000  -0.2709540000  1.9605190000
H  1.0109410000  -0.2822010000  3.1408610000
H  2.0552740000  -1.6938260000  2.9686830000
C  -0.8810290000  -2.6776890000  2.0967650000
H  -1.5854740000  -3.1819450000  1.4324100000
H  -1.4596320000  -2.0622860000  2.7895490000
H  -0.3679670000  -3.4470390000  2.6818310000
C  1.0149980000  2.7435000000  1.1634970000
H  1.5892760000  2.0880280000  1.8209590000
H  1.0082920000  3.7421430000  1.6098960000
H  1.5444860000  2.8043920000  0.2108550000
C  -1.6784060000  3.3485900000  -0.1523950000
H  -2.7321990000  3.0785650000  -0.2497880000
H  -1.6325730000  4.3515310000  0.2817250000
H  -1.2540860000  3.4019830000  -1.1578390000
C  -1.5869360000  2.0412680000  2.6148300000
H  -1.0679370000  1.3538260000  3.2868270000
H  -1.5959990000  3.0274390000  3.0888830000
H  -2.6213150000  1.7008360000  2.5293580000
C  -4.0610880000  -0.8035580000  0.6146800000
H  -5.0283720000  -1.1800730000  0.2683770000
H  -3.7087600000  -1.4628840000  1.4104390000
H  -4.2254670000  0.1845620000  1.0508750000
C  -3.5257170000  0.4247310000  -2.1336270000
H  -2.8938520000  0.4406760000  -3.0245970000
H  -4.5197550000  0.0873100000  -2.4413170000
H  -3.6200960000  1.4515720000  -1.7746860000
C  -2.6512090000  -2.4404490000  -1.5673690000
H  -2.2716390000  -3.1671280000  -0.8460740000
H  -1.9648830000  -2.4283480000  -2.4177560000
H  -3.6177240000  -2.8045240000  -1.9275470000
C  0.2708760000  0.4875770000  -2.4123460000
H  0.1730750000  -0.5637920000  -2.6619210000
H  -0.5945070000  1.1027760000  -2.6255740000
C  1.5104950000  1.0541300000  -2.3671300000
H  1.5903700000  2.1356750000  -2.2904300000
C  2.7804090000  0.2760240000  -2.2622870000
H  2.5689090000  -0.7872320000  -2.4145290000
H  3.4678180000  0.5739540000  -3.0636610000
C  3.4852490000  0.4700610000  -0.9161540000
H  2.7867390000  0.2232800000  -0.1121250000
H  3.7338190000  1.5290890000  -0.7847650000
C  4.7478570000  -0.3710420000  -0.7714800000
H  5.4445620000  -0.1175990000  -1.5778720000
H  4.4946230000  -1.4277750000  -0.9105030000
C  5.4320660000  -0.1843460000  0.5778770000
H  4.7703680000  -0.4752730000  1.3977550000
H  6.3392220000  -0.7874490000  0.6542600000
H  5.7125330000  0.8605120000  0.7353910000