15
charge=0, multiplicity=1, basis=def2-QZVPP, AUX_BASIS_CORR=rimp2-def2-QZVPPD, SCF_ALGORITHM=GDM, xc_grid=000099000590, mem_total=3750, num_basis=639, num_pairs=182991, num_threads=1
H  -2.7881440000  0.0000500000  1.0366160000
C  -2.4127330000  0.0000000000  0.0093000000
C  -0.9080550000  -0.0000010000  -0.0110970000
C  -0.1936430000  -1.1955870000  -0.0088630000
C  1.1942090000  -1.1985300000  0.0020300000
C  1.8942070000  0.0000010000  0.0082600000
C  1.1942070000  1.1985300000  0.0020300000
C  -0.1936440000  1.1955860000  -0.0088630000
H  -2.8164320000  0.8834700000  -0.4877270000
H  -2.8164320000  -0.8835180000  -0.4876420000
H  -0.7321590000  -2.1371400000  -0.0177950000
H  1.7303150000  -2.1402740000  0.0018240000
H  2.9774170000  0.0000010000  0.0139130000
H  1.7303130000  2.1402750000  0.0018240000
H  -0.7321610000  2.1371390000  -0.0177950000