9
charge=-1, multiplicity=1, basis=def2-QZVPP, AUX_BASIS_CORR=rimp2-def2-QZVPPD, SCF_ALGORITHM=GDM, xc_grid=000099000590, mem_total=3750, num_basis=378, num_pairs=69747, num_threads=1
C  1.2844520000  -0.4841320000  -0.0000110000
C  -0.1336090000  0.1103260000  0.0000000000
C  -1.1863850000  -0.7809620000  -0.0000530000
O  -0.1874900000  1.3768140000  0.0000710000
H  1.8231800000  -0.1199640000  0.8807780000
H  1.2951080000  -1.5784360000  -0.0000650000
H  1.8232020000  -0.1198770000  -0.8807500000
H  -1.0203050000  -1.8522710000  -0.0001060000
H  -2.2080110000  -0.4153620000  -0.0000420000