5
charge=0, multiplicity=2, basis=def2-QZVPP, AUX_BASIS_CORR=rimp2-def2-QZVPPD, SCF_ALGORITHM=GDM, xc_grid=000099000590, mem_total=3750, num_basis=217, num_pairs=23946, num_threads=1
S  0.6917130000  0.0000000000  -0.0018460000
C  -1.1053880000  0.0000000000  -0.0084170000
H  -1.5056640000  -0.8969070000  -0.4795420000
H  -1.4237500000  -0.0000250000  1.0390810000
H  -1.5056670000  0.8969280000  -0.4795020000