44
charge=0, multiplicity=2, basis=def2-QZVPP, mem_total=120000, AUX_BASIS_CORR=rimp2-def2-QZVPPD, SCF_ALGORITHM=GDM, xc_grid=000099000590, num_basis=1900, num_pairs=1160477, num_threads=32
C  1.4249820000  -1.4329090000  -0.4892880000
C  1.3397100000  -2.9406610000  -0.1858300000
C  1.2836810000  -3.0449570000  1.3363430000
H  2.1683610000  -3.4943600000  -0.6316540000
H  0.4219770000  -3.3398680000  -0.6277170000
C  0.3801310000  -1.8792720000  1.7448520000
H  2.2853330000  -2.9163590000  1.7517870000
H  0.9053310000  -4.0096490000  1.6791620000
C  0.6786010000  -0.7439600000  0.7349450000
H  0.5652230000  -1.5439920000  2.7667630000
H  -0.6663840000  -2.1771820000  1.6999920000
C  -0.4725900000  0.1697920000  0.3898650000
C  -0.1581440000  1.6043840000  0.3072400000
C  -1.8160840000  -0.2707970000  0.1216810000
C  -2.1364900000  -1.5988960000  -0.2374200000
C  -2.9024370000  0.6279680000  0.2381640000
C  -3.4393830000  -1.9908960000  -0.4803180000
C  -4.4858460000  -1.0827870000  -0.3657850000
C  -4.2031630000  0.2291690000  0.0004510000
H  -5.0080720000  0.9463830000  0.1099980000
H  -2.7110940000  1.6473420000  0.5439110000
H  -1.3511500000  -2.3298610000  -0.3474200000
H  -3.6413160000  -3.0166270000  -0.7658360000
H  -5.5059490000  -1.3937020000  -0.5540270000
C  -0.5501810000  2.3632200000  -0.8034320000
C  0.5794390000  2.2493900000  1.3082700000
C  0.9051770000  3.5923980000  1.2070030000
C  -0.2100390000  3.7016680000  -0.9131790000
C  0.5179660000  4.3248380000  0.0923930000
H  -1.1129430000  1.8840950000  -1.5950960000
H  -0.5116080000  4.2608420000  -1.7909710000
H  0.8830990000  1.6948350000  2.1882020000
H  0.7811360000  5.3721200000  0.0082300000
H  1.4639450000  4.0698910000  2.0031380000
S  3.2380570000  -1.0573030000  -0.4214700000
C  3.2976140000  0.7196590000  -0.7595500000
H  2.9855320000  0.9486240000  -1.7772160000
H  4.3400980000  1.0141910000  -0.6419640000
H  2.6947450000  1.2898270000  -0.0544500000
C  0.8877170000  -1.0806900000  -1.8702550000
H  1.4587740000  -1.6100230000  -2.6347090000
H  0.9568330000  -0.0116520000  -2.0728890000
H  -0.1612030000  -1.3623720000  -1.9679820000
H  1.4264630000  -0.1056340000  1.1973730000