23
charge=0, multiplicity=2, basis=def2-QZVPP, AUX_BASIS_CORR=rimp2-def2-QZVPPD, SCF_ALGORITHM=GDM, xc_grid=000099000590, mem_total=15000, num_basis=987, num_pairs=365945, num_threads=4
C  3.4149150000  -1.2654630000  0.9018800000
N  3.0456330000  -0.2625860000  -0.0630900000
H  2.9102440000  -1.1579970000  1.8718660000
H  4.4960870000  -1.2386870000  1.0604430000
H  3.1829530000  -2.2608020000  0.5036060000
C  1.9744730000  0.4629900000  0.2305940000
C  1.5162880000  1.5528870000  -0.6812310000
H  1.5061010000  0.4094480000  1.2154740000
C  0.6682430000  0.3806870000  -0.9678140000
C  -0.6732070000  0.1598020000  -0.4498900000
C  -1.3947660000  -0.9613710000  -0.8826320000
C  -1.2802210000  1.0133020000  0.4804760000
C  -2.5544150000  0.7518680000  0.9574850000
C  -3.2568490000  -0.3625280000  0.5168310000
C  -2.6693260000  -1.2172230000  -0.4088030000
H  -0.9407950000  -1.6332390000  -1.6022840000
H  -3.2086770000  -2.0881990000  -0.7615290000
H  -0.7556160000  1.8918880000  0.8351220000
H  -3.0049480000  1.4259740000  1.6762760000
H  -4.2536630000  -0.5625090000  0.8899090000
H  2.2363640000  1.8165470000  -1.4468870000
H  1.0456180000  2.4082580000  -0.2093340000
H  0.9960930000  -0.2622810000  -1.7724140000