14
charge=1, multiplicity=1, basis=def2-QZVPP, AUX_BASIS_CORR=rimp2-def2-QZVPPD, SCF_ALGORITHM=GDM, xc_grid=000099000590, mem_total=3750, num_basis=528, num_pairs=129928, num_threads=1
C  0.5810150000  0.5474360000  -0.0000070000
C  1.9303790000  -0.1367970000  0.0000060000
H  2.0742930000  -0.7540390000  0.8894150000
H  2.0743280000  -0.7540070000  -0.8894170000
H  2.7130590000  0.6218160000  0.0000370000
N  -0.5376190000  -0.4673970000  -0.0000080000
C  -1.9128140000  0.1215090000  0.0000070000
H  -2.0267340000  0.7339880000  0.8914930000
H  -2.0267020000  0.7341070000  -0.8914010000
H  -2.6450360000  -0.6830540000  -0.0000600000
H  -0.4262740000  -1.0759530000  -0.8152160000
H  0.4305980000  1.1659880000  -0.8846110000
H  0.4305860000  1.1660020000  0.8845840000
H  -0.4262630000  -1.0759630000  0.8151910000