18
charge=0, multiplicity=1, basis=def2-QZVPP, mem_total=15000, AUX_BASIS_CORR=rimp2-def2-QZVPPD, SCF_ALGORITHM=GDM, xc_grid=000099000590, num_basis=837, num_pairs=283533, num_threads=4
N  2.7007200000  -1.1937790000  -0.0000020000
C  1.7203160000  -0.2691050000  -0.0000010000
N  2.0460880000  1.0255540000  -0.0000010000
C  1.0664920000  1.9359080000  0.0000010000
N  -0.2434010000  1.7334130000  0.0000020000
C  -0.5414030000  0.4333940000  0.0000010000
C  0.3617270000  -0.6204880000  0.0000000000
H  1.3926950000  2.9707120000  0.0000010000
N  -0.2951880000  -1.8329650000  0.0000000000
C  -1.5568140000  -1.5085920000  0.0000020000
N  -1.7811090000  -0.1525170000  0.0000040000
H  -2.3801670000  -2.2082980000  0.0000030000
C  -3.0512830000  0.5435920000  -0.0000050000
H  -3.1366970000  1.1725480000  0.8859830000
H  -3.8545120000  -0.1914050000  0.0000780000
H  -3.1367630000  1.1724220000  -0.8860760000
H  2.4726330000  -2.1727020000  0.0000000000
H  3.6588320000  -0.8894680000  0.0000000000