12
charge=0, multiplicity=1, basis=def2-QZVPP, AUX_BASIS_CORR=rimp2-def2-QZVPPD, SCF_ALGORITHM=GDM, xc_grid=000099000590, mem_total=3750, num_basis=549, num_pairs=138829, num_threads=1
N  -0.3358580000  -1.1621820000  -0.0000140000
C  -0.8981580000  0.0304230000  -0.0000020000
C  -0.1844830000  1.2294120000  0.0000120000
C  1.1913950000  1.1481800000  0.0000190000
C  1.8070570000  -0.1024470000  0.0000090000
C  0.9985920000  -1.2218730000  -0.0000090000
O  -2.2449240000  0.0823690000  -0.0000130000
H  -0.7137530000  2.1721040000  0.0000190000
H  1.7871250000  2.0531170000  0.0000320000
H  2.8839300000  -0.2022590000  0.0000150000
H  1.4270050000  -2.2184340000  -0.0000150000
H  -2.5603300000  -0.8303770000  -0.0000250000