26
charge=0, multiplicity=2, basis=def2-QZVPP, mem_total=15000, AUX_BASIS_CORR=rimp2-def2-QZVPPD, SCF_ALGORITHM=GDM, xc_grid=000099000590, num_basis=1104, num_pairs=400841, num_threads=4
C  -4.9900430000  1.1625420000  0.0000210000
N  -3.6457740000  0.6294240000  -0.0000120000
H  -5.1244000000  1.7982170000  -0.8778560000
H  -5.1244350000  1.7980180000  0.8780380000
H  -5.7667750000  0.3849660000  -0.0000820000
C  -3.4991030000  -0.6208320000  -0.0001330000
C  -2.1584330000  -1.2877210000  -0.0001780000
C  -0.9759570000  -0.3303710000  -0.0000370000
H  -2.1103780000  -1.9520830000  -0.8717700000
H  -2.1104200000  -1.9522900000  0.8712600000
C  0.3364120000  -1.0381130000  -0.0000860000
H  -1.0565490000  0.3363390000  0.8664500000
H  -1.0565050000  0.3365400000  -0.8663740000
C  1.5888430000  -0.3906350000  -0.0000040000
H  0.3354020000  -2.1240620000  -0.0001880000
C  1.7107760000  1.0207760000  0.0001360000
C  2.7877600000  -1.1463160000  -0.0000590000
C  4.0214060000  -0.5314950000  0.0000190000
C  4.1159200000  0.8603060000  0.0001560000
C  2.9521000000  1.6258820000  0.0002130000
H  0.8176620000  1.6327430000  0.0001820000
H  3.0195690000  2.7075440000  0.0003200000
H  2.7207690000  -2.2286130000  -0.0001660000
H  4.9224480000  -1.1335570000  -0.0000260000
H  5.0860140000  1.3416000000  0.0002180000
H  -4.3700740000  -1.2954630000  -0.0002130000