19
charge=0, multiplicity=2, basis=def2-QZVPP, AUX_BASIS_CORR=rimp2-def2-QZVPPD, SCF_ALGORITHM=GDM, xc_grid=000099000590, mem_total=15000, num_basis=840, num_pairs=286426, num_threads=4
H  -3.7175520000  -0.6299430000  0.0410270000
C  -2.6946490000  -0.2737120000  0.0253790000
C  -1.6581950000  -1.1977960000  -0.0068290000
H  -1.8484850000  -2.2641670000  -0.0175900000
C  -0.3450140000  -0.7370490000  -0.0254940000
C  -0.1300840000  0.6192520000  -0.0120460000
C  -1.1273870000  1.5576740000  0.0204660000
H  -0.9096990000  2.6197080000  0.0266500000
C  -2.4441010000  1.0946660000  0.0420460000
H  -3.2659740000  1.7997760000  0.0693940000
C  2.1567750000  0.3204420000  -0.4271880000
C  1.9475860000  -1.0117780000  0.2342970000
O  0.6938470000  -1.6106540000  -0.0870920000
H  2.0334810000  -0.9054470000  1.3212950000
H  2.6948070000  -1.7282860000  -0.1088690000
C  2.8423740000  1.3187260000  0.1564580000
H  3.1124410000  1.2774970000  1.2058690000
H  3.1095890000  2.2138940000  -0.3898370000
H  1.9567880000  0.3596510000  -1.4937360000