25
charge=0, multiplicity=1, basis=def2-QZVPP, AUX_BASIS_CORR=rimp2-def2-QZVPPD, SCF_ALGORITHM=GDM, xc_grid=000099000590, mem_total=15000, num_basis=1101, num_pairs=394740, num_threads=4
C  -1.9235230000  -1.0830820000  -0.8121820000
O  -2.8920210000  -0.8002280000  0.2236070000
C  -0.6408400000  -0.3564770000  -0.5883360000
H  -0.6930000000  0.7240800000  -0.6612500000
C  0.5035410000  -0.9810170000  -0.3259250000
H  0.4896680000  -2.0658690000  -0.2442980000
C  1.8200400000  -0.3620020000  -0.1163330000
C  2.0698530000  0.9901000000  -0.3657490000
C  2.8697850000  -1.1525440000  0.3523930000
C  3.3234540000  1.5311360000  -0.1385680000
H  1.2804820000  1.6236020000  -0.7503610000
C  4.1268990000  -0.6122020000  0.5809560000
H  2.6939510000  -2.2052960000  0.5442280000
C  4.3578390000  0.7333190000  0.3376690000
H  3.4984840000  2.5812930000  -0.3394120000
H  4.9265750000  -1.2441250000  0.9481160000
H  5.3383070000  1.1594100000  0.5119880000
C  -3.5407930000  0.3721130000  0.1377700000
O  -3.3518820000  1.1691870000  -0.7435090000
C  -4.5052520000  0.5411750000  1.2738550000
H  -3.9553780000  0.5659220000  2.2160490000
H  -5.0602220000  1.4666300000  1.1446000000
H  -5.1881640000  -0.3079690000  1.3140630000
H  -1.7807910000  -2.1610850000  -0.7653100000
H  -2.3647000000  -0.8113830000  -1.7724900000