15
charge=0, multiplicity=1, basis=def2-QZVPP, AUX_BASIS_CORR=rimp2-def2-QZVPPD, SCF_ALGORITHM=GDM, xc_grid=000099000590, mem_total=3750, num_basis=639, num_pairs=182991, num_threads=1
C  -1.1942170000  -1.1985250000  0.0020300000
C  0.1936380000  -1.1955900000  -0.0088640000
C  0.9080550000  -0.0000100000  -0.0110980000
C  0.1936500000  1.1955830000  -0.0088640000
C  -1.1942000000  1.1985350000  0.0020300000
C  -1.8942070000  0.0000070000  0.0082610000
H  -1.7303270000  -2.1402670000  0.0018240000
H  -1.7303010000  2.1402820000  0.0018240000
H  -2.9774170000  0.0000140000  0.0139160000
H  0.7321720000  2.1371330000  -0.0177980000
H  0.7321480000  -2.1371460000  -0.0177970000
C  2.4127330000  -0.0000040000  0.0093020000
H  2.8164350000  0.8832310000  -0.4881430000
H  2.8164310000  -0.8837570000  -0.4872190000
H  2.7881410000  0.0005390000  1.0366180000