13
charge=-1, multiplicity=1, basis=def2-QZVPP, AUX_BASIS_CORR=rimp2-def2-QZVPPD, SCF_ALGORITHM=GDM, xc_grid=000099000590, mem_total=3750, num_basis=592, num_pairs=162214, num_threads=1
S  2.2271340000  -0.1269730000  -0.0652080000
C  0.8321490000  0.9737750000  0.3733780000
C  -0.4742520000  0.6553270000  -0.3616390000
H  1.0851940000  2.0079230000  0.1298510000
H  0.6400730000  0.9326210000  1.4534580000
N  -1.4601970000  1.7162820000  -0.1488160000
C  -1.0568270000  -0.7262330000  -0.0181290000
H  -0.2323550000  0.6082500000  -1.4297180000
O  -2.2491180000  -0.8800510000  0.1636960000
O  -0.2139600000  -1.7339230000  0.0164300000
H  0.7562900000  -1.3845830000  -0.0596050000
H  -2.3850850000  1.3008740000  -0.2192360000
H  -1.3786820000  2.0470920000  0.8076200000