17
charge=0, multiplicity=2, basis=def2-QZVPP, AUX_BASIS_CORR=rimp2-def2-QZVPPD, SCF_ALGORITHM=GDM, xc_grid=000099000590, mem_total=7500, num_basis=780, num_pairs=246713, num_threads=2
C  -0.0893850000  1.2319820000  0.0000110000
C  -1.4617410000  1.2116350000  0.0000170000
C  -2.1763920000  -0.0173560000  0.0000080000
C  -1.4168320000  -1.2182870000  -0.0000080000
C  -0.0430700000  -1.1903780000  -0.0000140000
C  0.6369840000  0.0343170000  -0.0000050000
H  0.4560920000  2.1668600000  0.0000170000
H  0.5237300000  -2.1114490000  -0.0000270000
H  -1.9397850000  -2.1673070000  -0.0000150000
H  -2.0192970000  2.1407270000  0.0000300000
C  -3.5722050000  -0.0436680000  0.0000150000
H  -4.1469280000  0.8731390000  0.0000270000
H  -4.1122620000  -0.9813320000  0.0000080000
C  2.1103710000  0.1127350000  -0.0000120000
O  2.7485510000  1.1351550000  0.0000040000
O  2.7077910000  -1.0984880000  -0.0000160000
H  3.6613290000  -0.9398520000  -0.0000120000