71
charge=1, multiplicity=1, basis=def2-QZVPP, mem_total=240000, AUX_BASIS_CORR=rimp2-def2-QZVPPD, SCF_ALGORITHM=GDM, xc_grid=000099000590, num_basis=3048, num_pairs=2310926, num_threads=64
C  -1.7588340000  0.9979720000  -1.0953700000
C  -1.5680970000  -1.6690620000  -0.8248440000
C  -3.0966910000  -1.6807240000  -0.9583960000
C  -3.7442690000  -0.4310980000  -0.3997050000
C  -3.2619390000  0.7495960000  -1.2289560000
H  -3.3670020000  -1.7786560000  -2.0147780000
H  -3.4618320000  -2.5731380000  -0.4467790000
H  -3.4571950000  -0.2825570000  0.6429880000
H  -3.5161440000  0.5668030000  -2.2773930000
H  -3.7772390000  1.6576730000  -0.9172470000
N  -1.0239500000  -0.3057090000  -1.1174480000
O  0.2340940000  -0.2431150000  -1.3039330000
C  -1.2739080000  1.8402280000  -2.2743470000
H  -1.8743960000  2.7497060000  -2.3190660000
H  -0.2315880000  2.1276460000  -2.1654030000
H  -1.3977560000  1.3006500000  -3.2142040000
C  -1.4541880000  1.7205180000  0.2242180000
H  -0.3879580000  1.9199590000  0.3199670000
H  -1.9737310000  2.6790330000  0.2211230000
H  -1.8058220000  1.1595730000  1.0897150000
C  -0.9697120000  -2.6424160000  -1.8413730000
H  0.1110080000  -2.7133010000  -1.7504350000
H  -1.3974020000  -3.6318900000  -1.6740040000
H  -1.2089680000  -2.3327000000  -2.8595660000
C  -1.1599520000  -2.0713340000  0.5990070000
H  -1.5030140000  -3.0891890000  0.7882070000
H  -0.0793540000  -2.0534080000  0.7221650000
H  -1.6009680000  -1.4169350000  1.3498270000
H  0.9800930000  -0.0740830000  -0.3522650000
C  1.2882790000  -1.6921810000  4.1186240000
C  2.3218940000  -2.1888650000  3.3358300000
C  2.6073240000  -1.6155890000  2.1080530000
C  1.8658480000  -0.5227010000  1.6405100000
C  0.8340190000  -0.0258490000  2.4514700000
C  0.5459810000  -0.6052330000  3.6725120000
H  1.0684360000  -2.1433220000  5.0782220000
H  2.9190230000  -3.0201470000  3.6889500000
H  3.4335890000  -1.9951350000  1.5240240000
H  0.2510580000  0.8191640000  2.1161770000
H  -0.2572150000  -0.2081270000  4.2806340000
C  2.1662330000  0.1171310000  0.3364670000
C  3.0372060000  -0.6243760000  -0.6107310000
C  4.1825760000  -0.0370030000  -1.1610710000
C  2.7420880000  -1.9522760000  -0.9491880000
C  5.0039000000  -0.7572540000  -2.0119760000
H  4.4497340000  0.9757310000  -0.8935950000
C  3.5538350000  -2.6645160000  -1.8106260000
H  1.8652040000  -2.4252960000  -0.5291960000
C  4.6888890000  -2.0670910000  -2.3465730000
H  5.8975290000  -0.2946620000  -2.4114300000
H  3.3053570000  -3.6869320000  -2.0661010000
H  5.3292120000  -2.6245390000  -3.0188100000
C  2.2490910000  1.5994560000  0.2926520000
C  2.1677470000  2.2591480000  -0.9428310000
C  2.4411440000  2.3662840000  1.4472860000
C  2.2490630000  3.6362720000  -1.0168260000
H  2.0314340000  1.6782570000  -1.8454780000
C  2.5363010000  3.7463660000  1.3678320000
H  2.5497690000  1.8802830000  2.4065940000
C  2.4309380000  4.3856660000  0.1406500000
H  2.1758500000  4.1300920000  -1.9777270000
H  2.7025260000  4.3236860000  2.2685310000
H  2.5013200000  5.4647500000  0.0830370000
N  -5.1875690000  -0.5410560000  -0.4028850000
C  -5.9332740000  0.2636580000  0.4112010000
C  -7.4275910000  0.1003880000  0.3300880000
H  -7.7431710000  -0.6692320000  -0.3746070000
H  -7.8043070000  -0.1460980000  1.3229980000
H  -7.8682870000  1.0549540000  0.0410740000
O  -5.3985460000  1.0611480000  1.1590320000
H  -5.6449430000  -1.1561970000  -1.0561500000