56
charge=1, multiplicity=1, basis=def2-QZVPP, mem_total=120000, AUX_BASIS_CORR=rimp2-def2-QZVPPD, SCF_ALGORITHM=GDM, xc_grid=000099000590, num_basis=2355, num_pairs=1548041, num_threads=32
C  -3.2598820000  3.4215100000  -0.6232060000
C  -3.4543490000  2.9006400000  0.6529730000
C  -3.3907940000  1.5355170000  0.8566770000
C  -3.1425130000  0.6827630000  -0.2256630000
C  -2.9465390000  1.2084050000  -1.5068910000
C  -3.0086760000  2.5770630000  -1.6989980000
H  -3.3104800000  4.4917620000  -0.7799370000
H  -3.6585890000  3.5632600000  1.4841040000
H  -3.5406070000  1.1245710000  1.8485730000
H  -2.7709470000  0.5401210000  -2.3400150000
H  -2.8690660000  2.9895480000  -2.6899820000
C  -3.0499630000  -0.7473700000  0.0018570000
C  -3.8021120000  -1.6591470000  0.9525710000
H  -1.8006620000  -0.8443140000  0.5168590000
C  -3.7364810000  -2.6444420000  -0.2243080000
H  -4.7985810000  -1.2997920000  1.2059750000
H  -3.2691820000  -1.9543900000  1.8553720000
H  -3.0923300000  -3.5124530000  -0.1004320000
O  -3.0782160000  -1.6207550000  -1.0433370000
C  0.8377020000  0.3521050000  1.1954330000
C  0.8424890000  -1.7186790000  -0.4627640000
C  2.3756350000  -1.6653430000  -0.3974080000
C  2.9147410000  -0.2697820000  -0.1455280000
C  2.3657410000  0.2458520000  1.1795240000
H  2.7156460000  -2.3320520000  0.4024470000
H  2.7611360000  -2.0618900000  -1.3387320000
H  2.6093830000  0.4059620000  -0.9456120000
H  2.6922100000  -0.4225180000  1.9822600000
H  2.7745200000  1.2359570000  1.3815560000
N  0.2850400000  -0.9354840000  0.6777500000
O  -0.8625190000  -1.2884950000  1.1029080000
C  0.3472990000  0.5393210000  2.6284250000
H  0.8650640000  1.3969190000  3.0585210000
H  -0.7231830000  0.7361360000  2.6709660000
H  0.5668670000  -0.3368640000  3.2394580000
C  0.3625640000  1.5344100000  0.3348510000
H  -0.7239970000  1.5722770000  0.2864940000
H  0.7134600000  2.4549740000  0.8025510000
H  0.7609140000  1.5132370000  -0.6763730000
C  0.3818460000  -3.1681440000  -0.3249390000
H  -0.6848240000  -3.2728670000  -0.5143720000
H  0.9130260000  -3.7708210000  -1.0622360000
H  0.6052790000  -3.5612830000  0.6673170000
C  0.3174010000  -1.1450250000  -1.7902300000
H  0.6627540000  -1.7871750000  -2.6020130000
H  -0.7722270000  -1.1499520000  -1.8082240000
H  0.6735590000  -0.1364430000  -1.9861790000
N  4.3626330000  -0.2665070000  -0.1613130000
C  5.0397290000  0.8989920000  -0.3885050000
C  6.5426440000  0.8155860000  -0.3716610000
H  6.9203940000  -0.1887610000  -0.1790660000
H  6.9197650000  1.1617490000  -1.3342790000
H  6.9221540000  1.4955040000  0.3915220000
O  4.4407610000  1.9372600000  -0.5966100000
H  4.8711000000  -1.1046120000  0.0698130000
H  -4.6853750000  -2.9213260000  -0.6783340000