23
charge=0, multiplicity=2, basis=def2-QZVPP, AUX_BASIS_CORR=rimp2-def2-QZVPPD, SCF_ALGORITHM=GDM, xc_grid=000099000590, mem_total=15000, num_basis=946, num_pairs=302655, num_threads=4
O  2.3860430000  -1.6019970000  0.0000020000
C  1.9613880000  -0.5103570000  -0.0000020000
C  2.6656900000  0.8125240000  -0.0000020000
C  4.1842600000  0.6923080000  0.0000030000
Cl  -0.1870660000  -0.1905020000  -0.0000060000
C  -2.3349670000  0.1203020000  0.0000010000
H  2.2897830000  1.3582350000  0.8695040000
H  2.2897880000  1.3582330000  -0.8695110000
H  4.5350180000  0.1533740000  0.8808290000
H  4.6404570000  1.6834500000  -0.0000010000
H  4.5350230000  0.1533650000  -0.8808150000
C  -2.5706090000  0.8921210000  -1.2668850000
C  -2.8759790000  -1.2807510000  0.0000530000
C  -2.5705900000  0.8922060000  1.2668400000
H  -2.0413450000  1.8462350000  -1.2573860000
H  -3.6426970000  1.1043320000  -1.3768120000
H  -2.2508810000  0.3265060000  -2.1432480000
H  -2.5548100000  -1.8318950000  0.8849320000
H  -2.5548220000  -1.8319550000  -0.8847940000
H  -3.9740420000  -1.2528910000  0.0000600000
H  -2.2508430000  0.3266540000  2.1432350000
H  -3.6426770000  1.1044190000  1.3767720000
H  -2.0413310000  1.8463230000  1.2572650000