55
charge=0, multiplicity=1, basis=def2-QZVPP, mem_total=120000, AUX_BASIS_CORR=rimp2-def2-QZVPPD, SCF_ALGORITHM=GDM, xc_grid=000099000590, num_basis=2325, num_pairs=1515416, num_threads=32
C  -6.0949600000  -0.5023060000  -1.5089710000
C  -5.2038180000  -1.2150270000  -0.4990500000
C  -3.8536140000  -0.5390020000  -0.3377460000
C  -2.8404730000  -1.3320790000  0.5105550000
C  -1.4970350000  -0.6373190000  0.6257640000
C  -0.3497600000  -0.9505250000  -0.0940010000
C  0.8426230000  -0.3158710000  0.2684420000
C  2.1936140000  -0.7143340000  -0.2659340000
C  2.9279530000  0.3582120000  -1.1441830000
C  2.9213770000  1.7210560000  -0.5173720000
C  1.7657740000  2.3292580000  -0.2468970000
C  0.4914000000  1.7089840000  -0.5885190000
C  -0.7097820000  2.0525950000  0.0157210000
C  -1.8742390000  1.3846690000  -0.3011120000
C  -3.1241270000  1.6459030000  0.4307490000
C  -3.3752370000  -1.6404540000  1.9113430000
C  3.0748290000  -1.2006980000  0.9065680000
C  4.4321740000  -1.6984000000  0.4127070000
C  5.1764250000  -0.6478370000  -0.4038800000
C  4.3199920000  -0.1394580000  -1.5527390000
C  -0.4302230000  -1.7036750000  -1.3980720000
O  -3.3063610000  2.5685640000  1.1798170000
O  -4.1200760000  0.7406110000  0.2524900000
O  3.2147740000  -0.2265190000  1.9263430000
O  5.5303520000  0.4818940000  0.4111230000
H  -6.2746350000  0.5284880000  -1.2014690000
H  -7.0606200000  -1.0026220000  -1.6009270000
H  -5.6333480000  -0.4844000000  -2.5002340000
H  -5.7000650000  -1.2490340000  0.4726490000
H  -5.0307910000  -2.2502590000  -0.8101470000
H  -3.4309370000  -0.3926940000  -1.3367070000
H  -2.6990560000  -2.2789020000  -0.0183470000
H  -1.3268610000  -0.1710460000  1.5895610000
H  0.8838220000  0.1052660000  1.2644010000
H  2.0678090000  -1.5817320000  -0.9217000000
H  2.3411600000  0.4191510000  -2.0669250000
H  3.8660620000  2.1730120000  -0.2426960000
H  1.7493190000  3.2751950000  0.2850130000
H  0.4348870000  1.2378450000  -1.5652860000
H  -0.7039960000  2.6702800000  0.9089340000
H  -1.9547360000  0.9136410000  -1.2703980000
H  -3.6341980000  -0.7194640000  2.4373830000
H  -2.6161910000  -2.1633050000  2.4957090000
H  -4.2630700000  -2.2723150000  1.8758080000
H  2.5514550000  -2.0318840000  1.3850400000
H  4.2866340000  -2.5853990000  -0.2123420000
H  5.0320090000  -2.0080510000  1.2735170000
H  6.0933720000  -1.0822290000  -0.8171840000
H  4.2057010000  -0.9676550000  -2.2591620000
H  4.8581500000  0.6532200000  -2.0768970000
H  -0.0642020000  -1.0892780000  -2.2271310000
H  0.1784220000  -2.6114620000  -1.3825630000
H  -1.4487240000  -2.0000910000  -1.6422490000
H  3.8067120000  0.4634420000  1.6018220000
H  6.1790360000  0.2037230000  1.0641030000