10
charge=0, multiplicity=1, basis=def2-QZVPP, AUX_BASIS_CORR=rimp2-def2-QZVPPD, SCF_ALGORITHM=GDM, xc_grid=000099000590, mem_total=3750, num_basis=408, num_pairs=80304, num_threads=1
C  0.9079050000  0.8135900000  -0.0000070000
C  -0.1540840000  0.0874530000  -0.0000010000
C  1.1424410000  -0.6735360000  0.0000170000
H  1.4778060000  -1.1682370000  -0.9124680000
H  1.4778020000  -1.1682050000  0.9125210000
C  -1.6182020000  -0.0714780000  -0.0000090000
H  -1.9388070000  -0.6371180000  0.8787580000
H  -2.1253270000  0.8943340000  -0.0000160000
H  -1.9387970000  -0.6371240000  -0.8787760000
H  1.3789600000  1.7801700000  -0.0000190000