24
charge=1, multiplicity=2, basis=def2-QZVPP, AUX_BASIS_CORR=rimp2-def2-QZVPPD, SCF_ALGORITHM=GDM, xc_grid=000099000590, mem_total=15000, num_basis=1111, num_pairs=379156, num_threads=4
C  4.8455390000  0.6811200000  -0.0000030000
C  4.1912180000  0.4533310000  -1.2044450000
C  2.8857800000  -0.0013500000  -1.1810490000
N  2.3195480000  -0.1921400000  0.0000010000
C  2.8857790000  -0.0013360000  1.1810490000
C  4.1912170000  0.4533450000  1.2044420000
F  0.8327320000  -0.7578170000  0.0000030000
S  -1.2737110000  -1.7776280000  0.0000050000
H  5.8688040000  1.0347480000  -0.0000040000
H  4.6787480000  0.6193850000  -2.1554830000
H  2.2878690000  -0.2160210000  -2.0570700000
H  2.2878670000  -0.2159960000  2.0570720000
H  4.6787450000  0.6194110000  2.1554790000
C  -2.3741930000  -0.4753320000  0.0000010000
C  -1.9375850000  0.8699380000  0.0000000000
C  -2.8584690000  1.8926400000  -0.0000030000
C  -4.2247600000  1.6047790000  -0.0000050000
C  -4.6716420000  0.2842630000  -0.0000030000
C  -3.7629450000  -0.7510470000  0.0000000000
H  -2.5249250000  2.9225120000  -0.0000050000
H  -4.9434810000  2.4148420000  -0.0000070000
H  -0.8762180000  1.0762730000  0.0000010000
H  -4.0963220000  -1.7808810000  0.0000010000
H  -5.7327640000  0.0710120000  -0.0000040000