16
charge=0, multiplicity=2, basis=def2-QZVPP, AUX_BASIS_CORR=rimp2-def2-QZVPPD, SCF_ALGORITHM=GDM, xc_grid=000099000590, mem_total=7500, num_basis=804, num_pairs=267597, num_threads=2
C  0.4521300000  -0.6957760000  0.0000170000
C  0.4521300000  0.6957760000  0.0000270000
C  1.6309740000  1.4153860000  0.0000870000
C  2.8218840000  0.6969800000  0.0001360000
C  2.8218840000  -0.6969800000  0.0001260000
C  1.6309740000  -1.4153860000  0.0000660000
C  -0.9409100000  -1.1962570000  -0.0000500000
C  -0.9409100000  1.1962570000  -0.0000350000
H  1.6184540000  2.4977410000  0.0000940000
H  3.7661050000  1.2271450000  0.0001840000
H  3.7661050000  -1.2271450000  0.0001660000
H  1.6184540000  -2.4977410000  0.0000580000
O  -1.3740360000  2.3050900000  -0.0000480000
O  -1.3740360000  -2.3050900000  -0.0000810000
N  -1.7547530000  0.0000000000  -0.0000820000
O  -3.0087760000  0.0000000000  -0.0001420000