21
charge=0, multiplicity=2, basis=def2-QZVPP, AUX_BASIS_CORR=rimp2-def2-QZVPPD, SCF_ALGORITHM=GDM, xc_grid=000099000590, mem_total=15000, num_basis=900, num_pairs=333115, num_threads=4
C  -2.8506930000  -0.0563930000  0.0102920000
C  -2.1113510000  -1.2311730000  0.0479570000
C  -0.7255480000  -1.1820630000  0.0305050000
C  -0.0562530000  0.0389270000  -0.0228330000
C  -0.8035820000  1.2099610000  -0.0585540000
C  -2.1917830000  1.1626260000  -0.0430660000
H  -3.9332690000  -0.0929470000  0.0222970000
H  -2.6150440000  -2.1895160000  0.0910370000
H  -0.1665160000  -2.1102610000  0.0613930000
H  -0.2876570000  2.1599560000  -0.0976970000
H  -2.7594320000  2.0851310000  -0.0735320000
C  1.4717920000  0.0963450000  -0.0349100000
O  1.9470860000  1.3812230000  -0.1206050000
C  2.0724720000  -0.7300540000  -1.1830970000
H  3.1601400000  -0.6631090000  -1.1528300000
H  1.7762960000  -1.7764230000  -1.1048380000
H  1.7201370000  -0.3458680000  -2.1410250000
C  2.0352730000  -0.3993310000  1.3247020000
H  1.7108360000  -1.4285050000  1.4802290000
H  3.1239600000  -0.3574080000  1.3161010000
H  1.6518910000  0.2161030000  2.1377330000