15
charge=0, multiplicity=2, basis=def2-QZVPP, AUX_BASIS_CORR=rimp2-def2-QZVPPD, SCF_ALGORITHM=GDM, xc_grid=000099000590, mem_total=7500, num_basis=733, num_pairs=224314, num_threads=2
S  -3.4707280000  -0.0296090000  0.0000020000
C  -1.7499970000  -0.0042870000  0.0000010000
C  -1.0147730000  -1.2069710000  -0.0000030000
C  0.3645300000  -1.1868190000  -0.0000030000
C  1.0409640000  0.0342970000  0.0000000000
C  0.3292430000  1.2349220000  0.0000030000
C  -1.0486670000  1.2192420000  0.0000040000
H  -1.5533600000  -2.1454520000  -0.0000050000
H  0.9275280000  -2.1099220000  -0.0000060000
H  0.8794580000  2.1667960000  0.0000050000
H  -1.6129800000  2.1424700000  0.0000070000
C  2.5248040000  0.1070100000  -0.0000010000
O  3.1577770000  1.1293150000  0.0000000000
O  3.1106490000  -1.1047870000  -0.0000040000
H  4.0669700000  -0.9607390000  -0.0000040000