11
charge=1, multiplicity=1, basis=def2-QZVPP, AUX_BASIS_CORR=rimp2-def2-QZVPPD, SCF_ALGORITHM=GDM, xc_grid=000099000590, mem_total=3750, num_basis=492, num_pairs=115920, num_threads=1
C  1.1730990000  -0.6409050000  0.0000180000
H  -2.0792100000  -1.2311300000  0.0000580000
H  -2.0650740000  1.3110350000  -0.0000340000
C  1.1424230000  0.7430880000  -0.0000320000
C  -1.1731020000  -0.6409000000  0.0000290000
N  0.0000030000  1.4187180000  -0.0000520000
C  -1.1424230000  0.7430900000  -0.0000250000
N  -0.0000010000  -1.2873810000  0.0000470000
H  2.0792070000  -1.2311340000  0.0000360000
H  2.0650780000  1.3110270000  -0.0000560000
H  -0.0000030000  -2.3053940000  0.0000870000