25
charge=0, multiplicity=1, basis=def2-QZVPP, mem_total=30000, AUX_BASIS_CORR=rimp2-def2-QZVPPD, SCF_ALGORITHM=GDM, xc_grid=000099000590, num_basis=1074, num_pairs=444156, num_threads=8
C  -1.6831810000  -1.6218400000  -0.0572300000
C  -3.0328090000  -0.9192080000  0.2171020000
C  -2.8115000000  0.5712770000  -0.1222820000
C  -1.3199210000  0.6991400000  -0.0364420000
C  -0.6943650000  -0.4934260000  -0.0024710000
H  -1.4704770000  -2.4031960000  0.6775090000
H  -1.6665960000  -2.1049600000  -1.0419480000
H  -3.2762100000  -1.0108940000  1.2772860000
H  -3.8588770000  -1.3542640000  -0.3461260000
H  -3.1528050000  0.8160770000  -1.1348170000
H  -3.3376510000  1.2403910000  0.5647540000
C  0.7486240000  -0.5488760000  0.0027720000
C  1.6375340000  -1.5569100000  -0.0430760000
C  3.0560920000  -1.0361180000  -0.0895020000
H  3.5223630000  -1.2468700000  -1.0594160000
H  3.7005920000  -1.4948260000  0.6658430000
C  2.9109540000  0.4943350000  0.1407110000
H  3.2698060000  0.7633750000  1.1377490000
H  3.4862920000  1.0804420000  -0.5777290000
C  1.4244960000  0.7487690000  0.0420150000
C  0.7453980000  1.8996960000  0.0073900000
N  -0.6499090000  1.8952450000  -0.0636440000
H  1.2110450000  2.8761120000  0.0268030000
H  -1.1572540000  2.7598090000  -0.0020650000
H  1.3912000000  -2.6089390000  -0.0962530000