47
charge=-1, multiplicity=1, basis=def2-QZVPP, mem_total=120000, AUX_BASIS_CORR=rimp2-def2-QZVPPD, SCF_ALGORITHM=GDM, xc_grid=000099000590, num_basis=2112, num_pairs=1185846, num_threads=32
N  -2.2304840000  -1.1975080000  -0.2476320000
C  -3.4915140000  -0.6184670000  0.2114400000
C  -4.6390240000  -1.5523850000  -0.1678610000
O  -5.7486090000  -1.4680270000  0.2868940000
O  -4.3033950000  -2.4495780000  -1.0978010000
C  -3.7409260000  0.7512480000  -0.4604470000
H  -3.8568110000  0.5907410000  -1.5372420000
H  -4.6946060000  1.1286160000  -0.0866550000
C  -2.6194360000  1.7195210000  -0.2077240000
C  -2.4940720000  2.3861670000  1.0123550000
H  -3.2737540000  2.2728480000  1.7612970000
C  -1.3953270000  3.1741760000  1.2982590000
H  -1.3040550000  3.6757940000  2.2548170000
C  -0.3381660000  3.3259190000  0.3753770000
C  -0.4918760000  2.6883260000  -0.8737010000
H  0.2918710000  2.8066910000  -1.6118040000
C  -1.6024480000  1.9067150000  -1.1434180000
H  -1.6812100000  1.4219480000  -2.1136070000
O  0.7299850000  4.0115080000  0.6917590000
H  1.7195300000  3.6633670000  0.0561340000
H  -3.5256440000  -0.4810000000  1.2956880000
H  -3.3364490000  -2.2972620000  -1.2347020000
H  -1.7914770000  -1.7848260000  0.4538470000
H  -1.5671610000  -0.4594540000  -0.4654790000
N  1.9453450000  -2.6598110000  -1.4655260000
C  2.4997670000  -3.0831640000  -0.1772240000
C  1.3728130000  -3.1120560000  0.8667290000
O  1.5565720000  -3.3238000000  2.0337190000
O  0.1590920000  -2.9299450000  0.3458410000
C  3.6997050000  -2.2444840000  0.3085120000
H  3.8835910000  -2.5067140000  1.3521860000
H  4.5791320000  -2.5491930000  -0.2657710000
C  3.4787330000  -0.7647960000  0.1389710000
C  4.0328090000  -0.0718880000  -0.9376600000
H  4.6964890000  -0.5974760000  -1.6204400000
C  3.7648240000  1.2689390000  -1.1597870000
H  4.2015420000  1.7927140000  -2.0021230000
C  2.9104710000  1.9920150000  -0.3061130000
C  2.3737200000  1.2938970000  0.7994210000
H  1.7316650000  1.8311630000  1.4853440000
C  2.6516490000  -0.0436310000  1.0047110000
H  2.2158710000  -0.5445560000  1.8638340000
O  2.6404940000  3.2493170000  -0.5533610000
H  2.8116840000  -4.1288370000  -0.2610960000
H  0.3229410000  -2.7822730000  -0.6171970000
H  2.3229150000  -3.1889590000  -2.2395350000
H  2.1465980000  -1.6742080000  -1.6228290000