26
charge=0, multiplicity=2, basis=def2-QZVPP, mem_total=15000, AUX_BASIS_CORR=rimp2-def2-QZVPPD, SCF_ALGORITHM=GDM, xc_grid=000099000590, num_basis=1077, num_pairs=425659, num_threads=4
C  0.6634010000  -0.2006240000  -0.3440040000
C  1.5594130000  -1.4482490000  -0.3673060000
C  3.0126570000  -0.9180210000  -0.4153520000
H  1.3189490000  -2.0975800000  -1.2103430000
H  1.3880650000  -2.0196770000  0.5459690000
C  2.9093330000  0.6090750000  -0.2572550000
H  3.5136720000  -1.1868180000  -1.3463640000
H  3.6000970000  -1.3527100000  0.3950290000
C  1.5368760000  0.8570050000  0.3882510000
H  2.9302800000  1.0988790000  -1.2358720000
H  3.7208440000  1.0360880000  0.3334770000
C  1.0399600000  2.2477540000  0.2808550000
C  -0.6458130000  -0.4244180000  0.3616250000
O  -1.6937680000  -0.0387200000  -0.3792390000
C  -2.9907450000  -0.1798750000  0.2278690000
O  -0.7566250000  -0.8790500000  1.4717250000
C  -4.0123180000  0.3164990000  -0.7652680000
H  -3.9750810000  -0.2673540000  -1.6862400000
H  -3.8354250000  1.3641060000  -1.0134400000
H  -5.0146630000  0.2272930000  -0.3416570000
H  -3.0051730000  0.3949060000  1.1554690000
H  -3.1427510000  -1.2292720000  0.4861310000
H  0.5539960000  2.7452740000  1.1091820000
H  1.0801480000  2.7640660000  -0.6717270000
H  0.4591790000  0.1547330000  -1.3559410000
H  1.5744250000  0.5553520000  1.4399450000