10
charge=0, multiplicity=2, basis=def2-QZVPP, AUX_BASIS_CORR=rimp2-def2-QZVPPD, SCF_ALGORITHM=GDM, xc_grid=000099000590, mem_total=3750, num_basis=435, num_pairs=88857, num_threads=1
N  -1.7344940000  -0.6231310000  0.0003990000
C  -0.5665850000  -0.0866730000  0.0014960000
C  0.7040880000  -0.7116750000  0.0081510000
O  -0.4845650000  1.2765660000  0.0042210000
N  1.8534260000  0.0212500000  -0.0523990000
H  0.7830610000  -1.7880850000  0.0061920000
H  2.7300500000  -0.4053980000  0.1928350000
H  1.7773530000  1.0186750000  0.0759910000
H  -1.3929760000  1.6026380000  0.0029250000
H  -1.6785100000  -1.6371020000  -0.0055930000