29
charge=0, multiplicity=2, basis=def2-QZVPP, AUX_BASIS_CORR=rimp2-def2-QZVPPD, SCF_ALGORITHM=GDM, xc_grid=000099000590, mem_total=30000, num_basis=1221, num_pairs=551550, num_threads=8
C  -0.2913430000  -0.1874370000  1.2164140000
C  -1.2284990000  -1.3062330000  0.8251230000
C  -1.7514130000  -1.1747160000  -0.6278650000
H  -2.0752520000  -1.2984020000  1.5154580000
H  -0.7359530000  -2.2750970000  0.9446240000
C  -2.4509950000  0.1164940000  -0.9028770000
H  -2.4366300000  -2.0135220000  -0.7977510000
H  -0.9175660000  -1.2983800000  -1.3221050000
C  -3.7641420000  0.3814050000  -0.2485790000
C  -1.7079430000  1.2654090000  -1.4942790000
N  -0.5901320000  0.7147180000  2.0614680000
C  1.0350380000  -0.1023190000  0.5385870000
C  1.7370450000  1.1036180000  0.5635090000
C  1.6003940000  -1.1921590000  -0.1205310000
H  -2.3667230000  1.8944180000  -2.1015590000
H  -0.8764500000  0.9338880000  -2.1196680000
H  -1.2822370000  1.9178760000  -0.7169380000
H  -4.3133930000  -0.5420450000  -0.0468120000
H  -4.3963310000  1.0246800000  -0.8682040000
H  -3.6472320000  0.9055020000  0.7133720000
C  2.8396770000  -1.0827580000  -0.7368940000
C  2.9685560000  1.2161280000  -0.0575330000
C  3.5251490000  0.1220090000  -0.7102310000
H  1.0827390000  -2.1419480000  -0.1522170000
H  1.2938570000  1.9435230000  1.0816460000
H  3.4990720000  2.1604890000  -0.0339260000
H  4.4895020000  0.2100760000  -1.1961050000
H  3.2680110000  -1.9416690000  -1.2392270000
H  -1.5236380000  0.5609370000  2.4400620000