33
charge=0, multiplicity=2, basis=def2-QZVPP, AUX_BASIS_CORR=rimp2-def2-QZVPPD, SCF_ALGORITHM=GDM, xc_grid=000099000590, mem_total=30000, num_basis=1341, num_pairs=616098, num_threads=8
C  -0.2632910000  0.1255100000  -0.2152380000
C  -1.0662600000  -1.0612960000  -0.7385560000
C  -2.5186970000  -0.6770120000  -1.0117600000
H  -1.0092700000  -1.8614020000  0.0065210000
H  -0.5894430000  -1.4552590000  -1.6397490000
C  -3.1142320000  0.1132900000  0.1357450000
H  -3.1099680000  -1.5809130000  -1.2109900000
H  -2.5567790000  -0.0690790000  -1.9204290000
C  -3.3685770000  -0.6793570000  1.3958920000
C  -4.2313640000  1.0511890000  -0.2448900000
H  -2.0253970000  0.8537210000  0.3943490000
N  -0.7893970000  1.1012210000  0.3822180000
C  1.2385250000  0.0713330000  -0.4297580000
H  1.3919230000  -0.0381790000  -1.5132900000
C  1.8583830000  -1.1585900000  0.2502050000
C  1.9668150000  1.3267720000  0.0411090000
H  -4.5323520000  1.6754350000  0.5993490000
H  -5.1189630000  0.4908470000  -0.5696600000
H  -3.9391910000  1.7086310000  -1.0668580000
H  -3.6346480000  -0.0232360000  2.2273500000
H  -2.4958820000  -1.2609550000  1.7005120000
H  -4.2004750000  -1.3814660000  1.2511570000
H  1.6082880000  2.2035740000  -0.5026350000
C  3.4670460000  1.1701790000  -0.1499890000
H  1.7481680000  1.4981000000  1.0973480000
H  1.4412340000  -2.0869230000  -0.1488440000
H  1.6365450000  -1.1271910000  1.3215310000
C  3.3680550000  -1.1647590000  0.0525150000
H  3.6028940000  -1.3009530000  -1.0149740000
H  3.8328230000  -1.9804210000  0.6069390000
O  3.9674320000  0.0253770000  0.5194140000
H  4.0079690000  2.0221390000  0.2615290000
H  3.7104300000  1.0984030000  -1.2216520000