20
charge=0, multiplicity=1, basis=def2-QZVPP, AUX_BASIS_CORR=rimp2-def2-QZVPPD, SCF_ALGORITHM=GDM, xc_grid=000099000590, mem_total=15000, num_basis=816, num_pairs=294313, num_threads=4
C  -0.4825040000  -0.6099610000  1.3596210000
C  0.4825040000  0.6099610000  1.3596210000
C  -0.1442620000  -0.5814050000  -1.4648760000
C  0.0601820000  1.8681400000  0.5728630000
C  0.1442620000  0.5814050000  -1.4648760000
C  0.4825040000  1.8863810000  -0.9130610000
C  -0.0601820000  -1.8681400000  0.5728630000
C  -0.4825040000  -1.8863810000  -0.9130610000
H  1.4745210000  0.2919060000  1.0228030000
H  -1.0272640000  1.9743740000  0.6282980000
H  0.6118590000  0.9199910000  2.3995960000
H  0.4833190000  2.7535460000  1.0563600000
H  -0.0099500000  2.7076610000  -1.4388160000
H  1.5602570000  2.0574300000  -0.9955210000
H  -0.4833190000  -2.7535460000  1.0563600000
H  1.0272640000  -1.9743740000  0.6282980000
H  0.0099500000  -2.7076610000  -1.4388160000
H  -1.5602570000  -2.0574300000  -0.9955210000
H  -0.6118590000  -0.9199910000  2.3995960000
H  -1.4745210000  -0.2919060000  1.0228030000