20
charge=0, multiplicity=2, basis=def2-QZVPP, AUX_BASIS_CORR=rimp2-def2-QZVPPD, SCF_ALGORITHM=GDM, xc_grid=000099000590, mem_total=15000, num_basis=924, num_pairs=345130, num_threads=4
N  -0.5774400000  1.6652400000  0.0483860000
H  -1.4182460000  2.0468130000  -0.3795580000
C  -0.5830210000  0.2640500000  0.1491990000
H  0.2005200000  -0.1746300000  -0.7874850000
C  0.0054720000  -0.3029190000  1.4402310000
C  -1.9456640000  -0.2488620000  -0.2978810000
H  0.9533650000  0.1896690000  1.6472770000
H  -0.6863500000  -0.0815350000  2.2589330000
O  -2.7433760000  0.5222390000  -0.8025760000
H  1.0895890000  -1.9426650000  1.2913920000
N  -2.1675920000  -1.5592720000  -0.1124850000
H  -3.0491000000  -1.9395400000  -0.4173180000
H  -1.4665650000  -2.1429580000  0.3251320000
C  0.5385270000  2.4471630000  0.1514540000
H  0.3295290000  3.5060250000  -0.0636800000
O  1.6364510000  2.0403060000  0.4488130000
N  1.1243030000  -0.5817090000  -1.6221020000
N  2.9293970000  -1.3185200000  -0.3133160000
N  2.0546420000  -0.9499520000  -0.9466220000
O  0.1584510000  -1.7135800000  1.3650460000