37
charge=0, multiplicity=2, basis=def2-QZVPP, AUX_BASIS_CORR=rimp2-def2-QZVPPD, SCF_ALGORITHM=GDM, xc_grid=000099000590, mem_total=60000, num_basis=1596, num_pairs=835938, num_threads=16
C  0.8368290000  2.1315670000  1.1152840000
C  1.8640720000  3.2564390000  0.8719880000
C  2.4129390000  3.0236530000  -0.5566230000
H  2.6606250000  3.2222340000  1.6170040000
H  1.4003290000  4.2410330000  0.9544870000
C  1.9215030000  1.6285330000  -0.9534900000
H  3.4991510000  3.1113060000  -0.6087070000
H  2.0009580000  3.7679610000  -1.2430230000
C  0.5448270000  1.5391770000  -0.2832540000
H  -0.0703060000  2.4752580000  1.6146090000
H  1.2709040000  1.3468420000  1.7406890000
C  -0.1239370000  0.1951030000  -0.2259150000
H  1.3712190000  -1.0570430000  -2.1194620000
C  1.4446850000  -1.5346270000  -1.1499390000
C  0.7240450000  -1.0120420000  -0.0753090000
C  0.8210110000  -1.6532870000  1.1610210000
H  0.2571830000  -1.2655470000  2.0014040000
C  1.6208300000  -2.7758340000  1.3212750000
H  1.6856140000  -3.2559930000  2.2905040000
C  2.3325230000  -3.2839520000  0.2434930000
H  2.9545960000  -4.1623430000  0.3659740000
C  2.2385780000  -2.6614940000  -0.9939710000
H  2.7842740000  -3.0561190000  -1.8428600000
H  -3.9834790000  -2.3198550000  -0.1503580000
C  -3.5401480000  -1.3311950000  -0.1273820000
C  -2.1674200000  -1.2022380000  -0.1797350000
H  -1.5519910000  -2.0890750000  -0.2485680000
C  -1.5423690000  0.0705510000  -0.1609110000
C  -2.3982780000  1.1979580000  -0.0849340000
H  -1.9762890000  2.1930240000  -0.0547680000
C  -3.7706170000  1.0566660000  -0.0295400000
H  -4.3945860000  1.9405370000  0.0343160000
C  -4.3571610000  -0.2057690000  -0.0504060000
H  -5.4341340000  -0.3108570000  -0.0079190000
H  -0.1101080000  2.2361950000  -0.8151170000
H  2.5847040000  0.8633340000  -0.5432240000
H  1.8798790000  1.4838520000  -2.0348970000