40
charge=0, multiplicity=2, basis=def2-QZVPP, AUX_BASIS_CORR=rimp2-def2-QZVPPD, SCF_ALGORITHM=GDM, xc_grid=000099000590, mem_total=60000, num_basis=1726, num_pairs=1003384, num_threads=16
N  -0.6669390000  -1.0399300000  0.1982650000
S  -0.6477370000  -0.7105290000  -1.4224180000
O  -0.1090480000  0.8121460000  -1.5630520000
C  -1.0406050000  1.9002530000  -1.3707370000
C  -1.2312470000  2.2379810000  0.1003120000
H  -1.9770490000  1.6490740000  -1.8689110000
H  -0.5746390000  2.7334270000  -1.8935840000
C  -1.8937310000  1.1651970000  0.9350350000
H  -1.8469260000  3.1464210000  0.1410250000
H  -0.2608340000  2.4820720000  0.5303910000
C  -3.3518190000  0.8655100000  0.6758590000
H  -1.6697290000  1.2820580000  1.9969690000
C  0.5882550000  -1.3112420000  0.9496260000
C  1.6982340000  -0.2990100000  0.6462430000
N  1.5870850000  0.8837910000  1.2503450000
C  2.7405860000  -0.5789750000  -0.2308610000
O  -2.0241730000  -0.7175140000  -1.8597610000
O  0.3526450000  -1.5154960000  -2.0765820000
C  -3.8679060000  -0.3102990000  1.4972600000
H  -3.5087920000  0.6638320000  -0.3857550000
H  -3.9265100000  1.7711960000  0.9144140000
H  -3.3346250000  -1.2239620000  1.2293470000
H  -4.9316100000  -0.4766070000  1.3197440000
H  -3.7292110000  -0.1364610000  2.5679430000
H  -1.2983570000  0.0756670000  0.6979260000
C  3.6886300000  0.3983130000  -0.4824320000
C  2.5018690000  1.8151510000  1.0062790000
C  3.5738250000  1.6253500000  0.1489380000
H  2.3710720000  2.7617660000  1.5227220000
H  4.2915350000  2.4184310000  -0.0168610000
H  2.7973130000  -1.5333470000  -0.7310720000
H  4.5033670000  0.2027630000  -1.1690910000
C  0.9972800000  -2.7578450000  0.6373230000
C  0.2031920000  -1.2407560000  2.4292780000
H  -0.0530270000  -0.2262000000  2.7211410000
H  1.0486950000  -1.5622190000  3.0393860000
H  -0.6411800000  -1.9044940000  2.6177150000
H  1.2033100000  -2.9126950000  -0.4181090000
H  0.1827820000  -3.4230520000  0.9237280000
H  1.8824110000  -3.0170950000  1.2217800000