9
charge=0, multiplicity=1, basis=def2-QZVPP, AUX_BASIS_CORR=rimp2-def2-QZVPPD, SCF_ALGORITHM=GDM, xc_grid=000099000590, mem_total=3750, num_basis=405, num_pairs=80576, num_threads=1
C  1.0903700000  0.3458420000  -0.0000030000
O  0.0000000000  1.1519150000  0.0000030000
C  0.7164510000  -0.9530050000  -0.0000110000
C  -0.7164520000  -0.9530050000  0.0000010000
C  -1.0903700000  0.3458420000  0.0000100000
H  2.0448390000  0.8432090000  -0.0000050000
H  1.3725460000  -1.8078970000  -0.0000210000
H  -1.3725470000  -1.8078960000  0.0000020000
H  -2.0448390000  0.8432100000  0.0000180000