25
charge=0, multiplicity=1, basis=def2-QZVPP, AUX_BASIS_CORR=rimp2-def2-QZVPPD, SCF_ALGORITHM=GDM, xc_grid=000099000590, mem_total=30000, num_basis=1060, num_pairs=452070, num_threads=8
C  1.5409730000  0.0002790000  0.1559540000
C  0.6747520000  -1.2476810000  -0.0120710000
C  0.7395920000  1.2428590000  -0.2295130000
C  2.1503250000  0.1044900000  1.5460390000
H  2.7448190000  -0.7810350000  1.7725990000
H  1.3713960000  0.1963130000  2.3052760000
H  2.7956880000  0.9803980000  1.6155380000
C  -0.6482760000  -1.1174180000  0.7457880000
H  1.2197850000  -2.1288630000  0.3336270000
H  0.4588140000  -1.3861000000  -1.0735660000
C  -0.5807740000  1.3176280000  0.5365710000
H  0.5211830000  1.2075210000  -1.2986610000
H  1.3330470000  2.1404440000  -0.0433300000
N  -1.3470010000  0.0940700000  0.3547960000
H  -0.4702020000  -1.0958440000  1.8272540000
H  -1.2662110000  -1.9876760000  0.5462360000
C  -2.5921290000  0.1519120000  -0.2075280000
H  -1.1870510000  2.1431790000  0.1735340000
H  -0.4048520000  1.4752490000  1.6064360000
O  -3.0973780000  1.2099160000  -0.5391410000
C  -3.3327240000  -1.1536140000  -0.4049030000
H  -2.7947260000  -1.8234950000  -1.0786690000
H  -4.2979100000  -0.9136150000  -0.8424530000
H  -3.4896230000  -1.6759970000  0.5406730000
Cl  2.9390260000  -0.1458250000  -1.0198210000