67
charge=1, multiplicity=1, basis=def2-QZVPP, mem_total=240000, AUX_BASIS_CORR=rimp2-def2-QZVPPD, SCF_ALGORITHM=GDM, xc_grid=000099000590, num_basis=2766, num_pairs=2086960, num_threads=64
C  1.2606630000  -2.0279010000  -0.7173090000
C  1.1908290000  -0.9418710000  1.6752530000
C  2.3651460000  -0.0595920000  1.2448550000
C  3.2656430000  -0.6893270000  0.1860050000
C  2.4483680000  -1.1128660000  -1.0308220000
H  1.9786000000  0.8802760000  0.8524450000
H  2.9539570000  0.1721040000  2.1349790000
H  3.7649550000  -1.5633960000  0.6092400000
H  2.0845680000  -0.2091330000  -1.5195190000
H  3.0925510000  -1.6318080000  -1.7437620000
N  0.4987480000  -1.4477670000  0.4420320000
O  -0.7450970000  -1.7089060000  0.5127270000
C  0.3585930000  -2.0787990000  -1.9415220000
H  0.9440770000  -2.4582440000  -2.7788300000
H  -0.4935950000  -2.7397230000  -1.7978300000
H  0.0093490000  -1.0874680000  -2.2163520000
C  1.6940070000  -3.4651840000  -0.3851670000
H  2.5048530000  -3.5174770000  0.3357750000
H  0.8509770000  -4.0439110000  -0.0055690000
H  2.0416200000  -3.9387520000  -1.3044040000
C  0.2326970000  -0.1121050000  2.5144810000
H  0.7970520000  0.3119460000  3.3451220000
H  -0.1934630000  0.7103200000  1.9446390000
H  -0.5609590000  -0.7277650000  2.9305480000
C  1.6446050000  -2.1373790000  2.5336740000
H  2.4937800000  -2.6715380000  2.1176890000
H  1.9419890000  -1.7614100000  3.5134470000
H  0.8251730000  -2.8429090000  2.6764120000
C  -2.6323820000  -0.0456410000  -0.0134170000
H  -1.5269960000  -0.8723350000  0.0601950000
C  -1.9514190000  1.2636860000  0.1341310000
C  -0.7173380000  1.4742000000  -0.4897040000
C  -2.5256700000  2.3036430000  0.8722130000
C  -0.0533850000  2.6842100000  -0.3618450000
H  -0.2650930000  0.6877530000  -1.0773050000
C  -1.8747000000  3.5202060000  0.9758230000
H  -3.4953980000  2.1723950000  1.3345680000
C  -0.6350490000  3.7078940000  0.3721840000
H  0.9168150000  2.8115030000  -0.8256050000
H  -2.3376600000  4.3294620000  1.5265730000
H  -0.1275480000  4.6596900000  0.4678370000
O  -3.3960530000  -0.5169860000  0.9815770000
C  -3.1842270000  -0.2939430000  2.3783680000
H  -4.1365520000  0.0350690000  2.7919550000
H  -2.4202060000  0.4514810000  2.5664350000
H  -2.9081480000  -1.2490310000  2.8230420000
C  -3.3363090000  -0.3927010000  -1.3503250000
C  -2.6009970000  0.1150320000  -2.5892210000
H  -1.6403490000  -0.3693970000  -2.7404460000
H  -3.2111990000  -0.1127990000  -3.4642790000
H  -2.4491060000  1.1937460000  -2.5651910000
C  -3.5717680000  -1.9024190000  -1.4490130000
H  -4.1352200000  -2.2738100000  -0.5942890000
H  -4.1409660000  -2.1227340000  -2.3531500000
H  -2.6310310000  -2.4511950000  -1.5052490000
C  -4.6981370000  0.3357900000  -1.2887730000
H  -5.2324960000  0.1514640000  -2.2220050000
H  -5.3079490000  -0.0283110000  -0.4637570000
H  -4.5679920000  1.4150380000  -1.1873380000
N  4.3413950000  0.2207180000  -0.1982550000
H  5.2889990000  -0.0723890000  -0.0289290000
C  4.1451170000  1.4384840000  -0.7736670000
C  5.3874890000  2.2265530000  -1.0960760000
H  5.3975390000  2.4352150000  -2.1662530000
H  5.3357960000  3.1838960000  -0.5767750000
H  6.3121990000  1.7195710000  -0.8211900000
O  3.0280770000  1.8701580000  -1.0168130000