25
charge=1, multiplicity=1, basis=def2-QZVPP, AUX_BASIS_CORR=rimp2-def2-QZVPPD, SCF_ALGORITHM=GDM, xc_grid=000099000590, mem_total=15000, num_basis=1020, num_pairs=454473, num_threads=4
N  -1.2443280000  -0.0000070000  -0.0000160000
C  -0.7920830000  -1.3898520000  -0.3224540000
C  0.7362250000  -1.3421920000  -0.5105870000
C  1.2907920000  0.0000000000  0.0000190000
C  -0.7921180000  0.4156900000  1.3648670000
C  0.7361770000  0.2289120000  1.4176710000
C  2.8115070000  0.0000160000  0.0000120000
H  3.2023170000  -0.2201440000  -0.9953010000
C  -0.7921240000  0.9742370000  -1.0423850000
C  0.7362150000  1.1132320000  -0.9071050000
H  -1.3358170000  -1.6886810000  -1.2162540000
H  -1.1095230000  -2.0121120000  0.5123140000
H  0.9896230000  -1.4708480000  -1.5637930000
H  1.1874770000  -2.1710000000  0.0348900000
H  -1.3358640000  -0.2089450000  2.0705530000
H  -1.1095250000  1.4497590000  1.4863490000
H  0.9895770000  -0.6188490000  2.0557120000
H  1.1874350000  1.1157140000  1.8626980000
H  3.2023400000  -0.7518630000  0.6883230000
H  3.2023330000  0.9720580000  0.3069920000
H  -1.3358040000  1.8977060000  -0.8541260000
H  -1.1096430000  0.5625520000  -1.9986850000
H  0.9896760000  2.0896880000  -0.4920160000
H  1.1874210000  1.0551490000  -1.8976280000
F  -2.6332520000  -0.0000440000  -0.0000150000