14
charge=1, multiplicity=1, basis=def2-QZVPP, AUX_BASIS_CORR=rimp2-def2-QZVPPD, SCF_ALGORITHM=GDM, xc_grid=000099000590, mem_total=3750, num_basis=555, num_pairs=133806, num_threads=1
C  1.0936470000  0.2857040000  0.2790130000
O  0.0917070000  0.0064420000  -0.4019730000
C  -1.2586920000  0.5943080000  -0.1219590000
H  -1.4906400000  1.1236170000  -1.0435350000
H  -1.1314810000  1.2967730000  0.7026400000
C  2.3896630000  -0.3083730000  -0.0153640000
H  2.3502500000  -0.9913990000  -0.8604380000
H  2.7507470000  -0.8158180000  0.8878200000
C  -2.2079650000  -0.5313000000  0.1718010000
H  -1.9350690000  -1.0641150000  1.0832110000
H  -3.2028110000  -0.1046620000  0.3145730000
H  -2.2576800000  -1.2328340000  -0.6605450000
H  3.1064010000  0.5025540000  -0.1966310000
H  0.9767130000  0.9923130000  1.1077560000