31
charge=0, multiplicity=1, basis=def2-QZVPP, mem_total=30000, AUX_BASIS_CORR=rimp2-def2-QZVPPD, SCF_ALGORITHM=GDM, xc_grid=000099000590, num_basis=1362, num_pairs=620033, num_threads=8
C  -1.0863800000  2.4228650000  -0.9569080000
N  -0.1921760000  1.2655780000  -0.8759920000
C  0.7626930000  1.2374400000  0.0780870000
H  0.9868150000  2.2214220000  0.4778540000
O  -0.6998810000  0.1293820000  -1.2002160000
C  -1.1185580000  -0.5930470000  0.7406880000
C  -2.5575070000  -0.3749080000  0.5325730000
C  -0.3650970000  0.2957830000  1.4959390000
H  -0.8908980000  1.1291380000  1.9502720000
H  0.4770670000  -0.0899810000  2.0540720000
H  -0.7602030000  -1.5909510000  0.5348900000
C  1.9487660000  0.3530210000  -0.0122310000
H  -1.8072960000  2.3956200000  -0.1384880000
H  -0.4957920000  3.3369910000  -0.9280380000
H  -1.6155870000  2.3568150000  -1.9042790000
C  3.0770290000  0.7242570000  0.7212010000
C  4.2276080000  -0.0475420000  0.6979260000
C  4.2711250000  -1.2028280000  -0.0700740000
C  3.1560960000  -1.5751810000  -0.8082030000
C  1.9974210000  -0.8129250000  -0.7776510000
H  3.0537810000  1.6321010000  1.3146110000
H  5.0924470000  0.2575480000  1.2745410000
H  5.1689520000  -1.8083440000  -0.0939040000
H  3.1835860000  -2.4740680000  -1.4124650000
H  1.1272490000  -1.1093060000  -1.3446910000
O  -3.1526760000  -1.4745240000  0.0446640000
O  -3.1623540000  0.6460230000  0.7705660000
C  -4.5448630000  -1.3493190000  -0.2435590000
H  -4.8564620000  -2.3215110000  -0.6165790000
H  -5.1011350000  -1.0868810000  0.6563280000
H  -4.7079850000  -0.5803880000  -0.9990330000