15
charge=1, multiplicity=1, basis=def2-QZVPP, AUX_BASIS_CORR=rimp2-def2-QZVPPD, SCF_ALGORITHM=GDM, xc_grid=000099000590, mem_total=3750, num_basis=639, num_pairs=182618, num_threads=1
C  -0.2183200000  1.1989860000  -0.0087000000
C  -0.9403940000  0.0000000000  -0.0114840000
H  1.7627570000  -2.0714180000  0.0036760000
H  -0.7296280000  2.1523270000  -0.0161530000
C  -2.4318500000  0.0000000000  0.0053700000
C  1.1520340000  1.1790070000  0.0016310000
C  -0.2183210000  -1.1989850000  -0.0087000000
N  1.8003860000  0.0000000000  0.0067850000
C  1.1520330000  -1.1790070000  0.0016310000
H  -0.7296290000  -2.1523270000  -0.0161530000
H  -2.8371600000  -0.8880660000  -0.4780730000
H  -2.8371610000  0.8880830000  -0.4780420000
H  -2.7805330000  -0.0000180000  1.0430690000
H  1.7627580000  2.0714170000  0.0036760000
H  2.8147990000  0.0000000000  0.0120110000