47
charge=0, multiplicity=1, basis=def2-QZVPP, mem_total=120000, AUX_BASIS_CORR=rimp2-def2-QZVPPD, SCF_ALGORITHM=GDM, xc_grid=000099000590, num_basis=1923, num_pairs=1126430, num_threads=32
C  -3.4331220000  0.7922890000  -0.5804340000
C  -1.9937630000  1.2753390000  -0.7726610000
C  -1.0550270000  0.7292810000  0.2959760000
C  -1.2890590000  -1.2503120000  0.0462150000
C  -3.6490590000  -0.7135390000  -0.6981650000
H  -1.6383790000  0.9401060000  -1.7557940000
H  -3.7778150000  1.1234610000  0.4081810000
H  -4.0722540000  1.2990810000  -1.3106060000
H  -1.0190040000  -1.1818190000  -1.0040480000
H  -3.3621980000  -1.0160230000  -1.7144740000
H  -1.4708150000  0.7226690000  1.3005550000
H  -3.0228850000  -1.2190020000  1.3059730000
H  -2.9710870000  -2.5561100000  0.1716740000
C  -2.7622790000  -1.4855370000  0.2750540000
C  0.2995420000  1.0752250000  0.2661780000
C  -0.3474050000  -1.8548450000  0.8769370000
H  -0.6836280000  -2.2894660000  1.8127530000
C  1.5516650000  -1.0157360000  -0.3753880000
C  1.0230180000  -1.7499240000  0.6622090000
H  1.6821470000  -2.1222850000  1.4362510000
H  0.9275230000  -0.7954620000  -1.2302470000
H  0.7400060000  1.5278710000  -0.6138970000
C  -5.1190030000  -1.0670430000  -0.4969010000
H  -5.2899930000  -2.1392340000  -0.6194640000
H  -5.7552530000  -0.5410230000  -1.2125010000
H  -5.4494850000  -0.7896570000  0.5085590000
C  1.0360030000  1.1277500000  1.5150940000
O  0.5850590000  0.6347530000  2.5426470000
C  2.3631650000  1.8529200000  1.5196270000
C  2.9784790000  -0.7696790000  -0.5815160000
C  3.3640340000  -0.1849100000  -1.7255760000
H  2.5770360000  0.0726970000  -2.4316960000
C  4.7449520000  0.1675630000  -2.1723280000
H  4.9861900000  -0.3430580000  -3.1097220000
H  5.5123600000  -0.0929560000  -1.4456760000
H  4.8222910000  1.2405050000  -2.3744630000
C  3.9222340000  -1.1925640000  0.5099810000
H  4.9436680000  -0.8695750000  0.3236050000
H  3.9287360000  -2.2810910000  0.6122180000
H  3.6102120000  -0.7822380000  1.4725150000
C  -1.9721150000  2.8080230000  -0.7619920000
H  -2.2847490000  3.1882390000  0.2142760000
H  -0.9740530000  3.1972410000  -0.9644580000
H  -2.6567470000  3.2078940000  -1.5144080000
H  2.1726310000  2.9292610000  1.5621660000
H  2.9377780000  1.6543870000  0.6142230000
H  2.9337430000  1.5717560000  2.4034800000