21
charge=1, multiplicity=1, basis=def2-QZVPP, AUX_BASIS_CORR=rimp2-def2-QZVPPD, SCF_ALGORITHM=GDM, xc_grid=000099000590, mem_total=15000, num_basis=900, num_pairs=315930, num_threads=4
C  1.1585150000  0.2955850000  -0.0000020000
C  -0.2600390000  0.1164680000  -0.0000020000
C  -0.7943500000  -1.1901600000  -0.0000090000
C  -1.1360480000  1.2195350000  0.0000060000
C  -2.1572080000  -1.3783190000  -0.0000090000
H  -0.1275030000  -2.0408100000  -0.0000160000
C  -2.5001740000  1.0185780000  0.0000080000
H  -0.7614130000  2.2327080000  0.0000130000
C  -3.0096590000  -0.2756410000  0.0000000000
H  -2.5657680000  -2.3801820000  -0.0000160000
H  -3.1711250000  1.8672390000  0.0000160000
H  -4.0822090000  -0.4281440000  0.0000010000
O  1.8569590000  -0.7829830000  0.0000120000
C  3.3069420000  -0.7966360000  0.0000100000
H  3.6800620000  -0.3097550000  0.8991180000
H  3.5718900000  -1.8482890000  0.0000360000
H  3.6800590000  -0.3098010000  -0.8991240000
C  1.8515440000  1.6043020000  -0.0000140000
H  2.4974620000  1.6773580000  -0.8795480000
H  1.1683180000  2.4438700000  -0.0000520000
H  2.4974160000  1.6773980000  0.8795510000