26
charge=0, multiplicity=1, basis=def2-QZVPP, mem_total=30000, AUX_BASIS_CORR=rimp2-def2-QZVPPD, SCF_ALGORITHM=GDM, xc_grid=000099000590, num_basis=1212, num_pairs=567185, num_threads=8
O  1.2821760000  -0.2440100000  1.5870890000
C  0.7960930000  -1.2130830000  0.9048470000
C  -0.4934460000  -1.6668730000  1.0026510000
C  -1.2280140000  0.3929490000  -0.0878910000
C  -0.8345050000  1.1684170000  0.9866160000
C  0.4863200000  1.5743470000  1.0416840000
H  -1.1092580000  -1.3835230000  1.8420520000
H  -0.8101750000  -2.4840200000  0.3683800000
H  -1.4805690000  1.2364080000  1.8514200000
H  0.8557930000  2.0912400000  1.9170650000
C  -0.4281600000  0.3751720000  -1.3142220000
C  0.7271250000  1.0353770000  -1.3842480000
C  1.2745030000  1.8059330000  -0.2227280000
H  -0.8046470000  -0.1884190000  -2.1559650000
H  1.3033210000  1.0551030000  -2.3011790000
H  2.3162860000  1.5372380000  -0.0502360000
O  1.3186150000  3.2051200000  -0.5027720000
H  0.4436000000  3.4897660000  -0.7874650000
C  1.6873570000  -1.7777140000  -0.1924750000
O  2.9169020000  -1.2536900000  -0.1712650000
O  1.3457110000  -2.6108270000  -0.9808730000
C  -2.6309620000  -0.1233410000  -0.0938300000
O  -3.3909080000  -0.0306140000  0.8318850000
O  -2.9621190000  -0.7058530000  -1.2561640000
H  2.9391120000  -0.6434620000  0.5871670000
H  -3.8743590000  -1.0184430000  -1.1768700000