9
charge=-1, multiplicity=1, basis=def2-QZVPP, AUX_BASIS_CORR=rimp2-def2-QZVPPD, SCF_ALGORITHM=GDM, xc_grid=000099000590, mem_total=3750, num_basis=378, num_pairs=69747, num_threads=1
C  -1.2844620000  -0.4841110000  -0.0000090000
C  0.1336120000  0.1103260000  -0.0000070000
C  1.1863690000  -0.7809830000  -0.0000470000
O  0.1875170000  1.3768140000  0.0000660000
H  -1.8232070000  -0.1198640000  -0.8807520000
H  -1.2951290000  -1.5784150000  -0.0000520000
H  -1.8231830000  -0.1199330000  0.8807770000
H  1.0202680000  -1.8522860000  -0.0000910000
H  2.2080020000  -0.4154030000  -0.0000300000