3
charge=0, multiplicity=2, basis=def2-QZVPP, AUX_BASIS_CORR=rimp2-def2-QZVPPD, SCF_ALGORITHM=GDM, xc_grid=000099000590, mem_total=3750, num_basis=171, num_pairs=14984, num_threads=1
O  1.0930690000  -0.1393270000  0.0000000000
N  0.0000000000  0.3184610000  0.0000000000
O  -1.0930690000  -0.1393260000  0.0000000000