9
charge=-1, multiplicity=1, basis=def2-QZVPP, AUX_BASIS_CORR=rimp2-def2-QZVPPD, SCF_ALGORITHM=GDM, xc_grid=000099000590, mem_total=3750, num_basis=378, num_pairs=69747, num_threads=1
C  -1.2844350000  -0.4841640000  -0.0000950000
C  0.1336040000  0.1103250000  0.0000200000
C  1.1864100000  -0.7809280000  -0.0001070000
O  0.1874450000  1.3768160000  0.0002200000
H  -1.8231970000  -0.1200970000  0.8807180000
H  -1.8231710000  -0.1198220000  -0.8808100000
H  -1.2950730000  -1.5784700000  -0.0002660000
H  2.2080260000  -0.4152950000  -0.0000350000
H  1.0203720000  -1.8522460000  -0.0002790000