6
charge=0, multiplicity=1, basis=def2-QZVPP, AUX_BASIS_CORR=rimp2-def2-QZVPPD, SCF_ALGORITHM=GDM, xc_grid=000099000590, mem_total=3750, num_basis=247, num_pairs=30868, num_threads=1
S  0.6622500000  -0.0869640000  -0.0000480000
C  -1.1552220000  0.0199200000  0.0000760000
H  -1.5238500000  0.5212400000  0.8928560000
H  -1.5239650000  0.5213430000  -0.8925990000
H  -1.5228380000  -1.0048380000  0.0000410000
H  0.9059920000  1.2341610000  0.0000130000