49
charge=0, multiplicity=2, basis=def2-QZVPP, mem_total=120000, AUX_BASIS_CORR=rimp2-def2-QZVPPD, SCF_ALGORITHM=GDM, xc_grid=000099000590, num_basis=1954, num_pairs=1163305, num_threads=32
C  -0.1156200000  -0.2826620000  2.6299800000
C  -1.2427630000  0.3809860000  3.0281340000
H  -2.1855540000  -0.1375810000  3.1577100000
Si  0.0345660000  -0.0251220000  0.1050560000
H  0.8228490000  0.2613420000  2.6823420000
H  -1.2524360000  1.4573850000  3.1409860000
Si  -0.4485240000  2.2378140000  -0.2329070000
Si  -1.6079480000  -1.4199200000  -0.8050880000
Si  2.2810130000  -0.5308550000  -0.3414320000
C  0.6362350000  3.2780660000  0.9067930000
H  0.4226690000  4.3437210000  0.7843400000
H  0.4734360000  3.0243020000  1.9568610000
H  1.6967530000  3.1264440000  0.6903530000
C  -0.1256290000  2.7624180000  -2.0152100000
H  -0.3843640000  3.8164060000  -2.1550940000
H  0.9220490000  2.6350290000  -2.2925110000
H  -0.7261440000  2.1762000000  -2.7145130000
C  -2.2618290000  2.5866300000  0.1451870000
H  -2.4667560000  3.6590790000  0.0785570000
H  -2.9152470000  2.0817300000  -0.5704100000
H  -2.5420020000  2.2509690000  1.1451710000
C  -1.9832030000  -0.9192780000  -2.5851370000
H  -1.0923180000  -0.9810290000  -3.2143690000
H  -2.7458800000  -1.5738610000  -3.0177810000
H  -2.3563120000  0.1061540000  -2.6389030000
C  -1.0877920000  -3.2303300000  -0.7890090000
H  -0.8357380000  -3.5684870000  0.2182580000
H  -1.9047300000  -3.8582220000  -1.1565960000
H  -0.2192250000  -3.4076070000  -1.4252350000
C  -3.1925070000  -1.2518290000  0.2016330000
H  -3.0535110000  -1.6074160000  1.2245780000
H  -3.5287400000  -0.2147390000  0.2565350000
H  -3.9946630000  -1.8422720000  -0.2507410000
C  3.3040770000  -0.1368110000  1.1944440000
H  3.0178050000  -0.7619140000  2.0434170000
H  4.3666850000  -0.3091610000  1.0003500000
H  3.1877880000  0.9072500000  1.4957850000
C  2.5203950000  -2.3516230000  -0.7627990000
H  3.5866130000  -2.5805430000  -0.8489620000
H  2.0984880000  -3.0092460000  0.0000200000
H  2.0493980000  -2.6041980000  -1.7151460000
C  2.9673620000  0.5004800000  -1.7634650000
H  4.0048630000  0.2197680000  -1.9686800000
H  2.3927250000  0.3577190000  -2.6811070000
H  2.9545390000  1.5662670000  -1.5248510000
C  -0.0016610000  -1.7828610000  2.7614080000
H  0.7653280000  -2.2014660000  2.1093210000
H  0.2600970000  -2.0448000000  3.7915810000
H  -0.9483310000  -2.2731970000  2.5281560000