28
charge=0, multiplicity=1, basis=def2-QZVPP, mem_total=30000, AUX_BASIS_CORR=rimp2-def2-QZVPPD, SCF_ALGORITHM=GDM, xc_grid=000099000590, num_basis=1272, num_pairs=623462, num_threads=8
C  -0.5887990000  -0.7675540000  -1.2739940000
C  0.1826570000  -0.3122040000  -0.0627350000
C  -0.4150330000  0.7595310000  0.8263600000
C  -1.9602670000  0.6258260000  0.8741500000
C  -2.3174550000  -0.7859430000  1.3042250000
C  -2.4049160000  -1.5703810000  0.2354160000
C  -2.1095280000  -0.7611990000  -1.0159200000
H  -0.3573670000  -0.0799640000  -2.0959190000
H  -0.2435780000  -1.7542450000  -1.5846710000
H  -2.6353460000  -1.1048750000  -1.9068200000
C  -2.5117210000  0.6450310000  -0.5559850000
H  -2.5649580000  -2.6409450000  0.2402630000
H  -2.3923630000  -1.1011290000  2.3370770000
C  1.3975870000  -0.8221400000  0.2177800000
H  -3.5977760000  0.7470970000  -0.5402580000
H  -2.0907660000  1.4407720000  -1.1724290000
H  -2.3672390000  1.4063340000  1.5186820000
C  1.6843440000  2.6781000000  -1.5226290000
C  2.1612420000  -0.3797570000  1.3450970000
C  2.0083110000  -1.8183830000  -0.6091750000
N  2.7670030000  -0.0200510000  2.2518150000
N  2.4907470000  -2.6168100000  -1.2788460000
C  0.8380400000  2.4222920000  -0.5714620000
C  0.0036940000  2.1499130000  0.3865330000
H  2.7467280000  2.7532330000  -1.3183550000
H  1.3564950000  2.8281380000  -2.5453670000
H  -0.4363250000  2.9686250000  0.9504970000
H  -0.0306960000  0.6161910000  1.8405570000