39
charge=0, multiplicity=1, basis=def2-QZVPP, AUX_BASIS_CORR=rimp2-def2-QZVPPD, SCF_ALGORITHM=GDM, xc_grid=000099000590, mem_total=60000, num_basis=1737, num_pairs=1024787, num_threads=16
C  2.3758350000  0.5224200000  0.6635760000
O  3.1703240000  -0.5116010000  0.9146390000
C  1.2558560000  0.7049930000  1.4591030000
C  0.2899130000  1.6676260000  1.2158980000
C  -0.9391340000  1.7176130000  2.0791920000
C  0.3850060000  2.4904650000  0.0744070000
C  -0.5777700000  3.6188910000  -0.1608650000
C  0.1813050000  1.1386750000  -1.4713170000
C  1.2439690000  0.2171340000  -1.4564140000
C  1.0695180000  -1.1615490000  -1.0622490000
O  1.9357090000  -2.0123090000  -1.2207320000
C  -0.2298930000  -1.5111110000  -0.4081110000
C  -1.3190870000  -0.6254430000  -0.4874210000
C  -1.1816840000  0.6661560000  -1.1623280000
O  -2.1675550000  1.3614570000  -1.4252370000
C  -2.5534600000  -0.9962830000  0.0775910000
C  -2.6594310000  -2.2067840000  0.7615990000
C  -1.5699580000  -3.0527100000  0.8401960000
C  -0.3557180000  -2.7212270000  0.2441420000
C  4.3386090000  -0.6318710000  0.1034010000
O  -3.6359920000  -0.2130380000  -0.0057330000
H  1.0859730000  -0.0412150000  2.2269130000
H  -1.8530790000  1.6004740000  1.4928340000
H  -0.9204020000  0.9313670000  2.8328620000
H  -1.0147110000  2.6814140000  2.5906650000
H  -0.3947670000  4.0938340000  -1.1252330000
H  -1.6149640000  3.2858530000  -0.1515230000
H  -0.4581180000  4.3819380000  0.6150960000
H  2.1320750000  0.4262410000  -2.0404500000
H  -3.6129440000  -2.4645980000  1.2042730000
H  -1.6698070000  -3.9961500000  1.3640300000
H  0.1985960000  1.9347380000  -2.2068900000
H  1.3893490000  2.7058310000  -0.2702650000
H  2.8044230000  1.3203210000  0.0704790000
H  0.4958310000  -3.3872250000  0.2723910000
H  -3.4029920000  0.5422580000  -0.5928610000
H  4.9477470000  -1.4062910000  0.5618620000
H  4.0539600000  -0.9391050000  -0.9023790000
H  4.8907010000  0.3122700000  0.0923140000