9
charge=-1, multiplicity=1, basis=def2-QZVPP, mem_total=3750, AUX_BASIS_CORR=rimp2-def2-QZVPPD, SCF_ALGORITHM=GDM, xc_grid=000099000590, num_basis=378, num_pairs=69747, num_threads=1
C  -1.1864460000  -0.7808860000  0.0000260000
C  -0.1336010000  0.1103270000  -0.0000050000
O  -0.1873850000  1.3768180000  -0.0000420000
C  1.2844130000  -0.4842080000  0.0000130000
H  -1.0204510000  -1.8522100000  0.0000600000
H  -2.2080400000  -0.4152060000  0.0000180000
H  1.8231760000  -0.1199840000  0.8807590000
H  1.8231740000  -0.1200400000  -0.8807570000
H  1.2950270000  -1.5785080000  0.0000480000