39
charge=0, multiplicity=2, basis=def2-QZVPP, AUX_BASIS_CORR=rimp2-def2-QZVPPD, SCF_ALGORITHM=GDM, xc_grid=000099000590, mem_total=60000, num_basis=1737, num_pairs=796499, num_threads=16
N  0.4561630000  1.4628520000  1.0115920000
C  1.8264280000  1.2051170000  1.3568380000
H  -0.2669960000  0.8682300000  1.4064870000
C  2.4090260000  0.0575240000  0.5306420000
H  2.4169660000  2.1096060000  1.2055760000
H  1.8843580000  0.9332500000  2.4124900000
O  1.7106620000  -0.7753170000  -0.0137010000
N  3.7601500000  0.0159920000  0.4879830000
H  4.3228330000  0.7742810000  0.8466780000
C  4.4426940000  -1.0026120000  -0.2639780000
C  5.9215940000  -0.7377710000  -0.2341440000
H  4.2509740000  -1.9996590000  0.1416420000
H  4.1068870000  -1.0247710000  -1.3051010000
O  6.4421070000  0.1974070000  0.3116650000
O  6.6045200000  -1.6777360000  -0.8989680000
H  7.5442150000  -1.4508350000  -0.8529330000
C  0.1818720000  2.0175140000  -0.1966570000
C  -1.2735940000  1.8818110000  -0.6342020000
O  1.0214590000  2.5544130000  -0.8938640000
N  -1.5759710000  0.5160340000  -1.0216100000
H  -1.4295720000  2.5353200000  -1.4888970000
H  -1.9491490000  2.1691690000  0.1725280000
H  -1.4534180000  0.2500450000  -1.9846600000
C  -1.8646100000  -0.4428850000  -0.1171600000
C  -2.2194790000  -1.7714600000  -0.6279170000
O  -1.9140260000  -0.1861610000  1.0952680000
N  -5.1900480000  -0.2758170000  -1.7785090000
H  -2.1919540000  -1.9348690000  -1.6996640000
H  -1.8535310000  -2.5875260000  -0.0151160000
C  -5.1986520000  -0.3078110000  -0.5161420000
C  -4.7502110000  -1.5320610000  0.2252370000
O  -5.5701560000  0.7220670000  0.2692990000
N  -4.6126670000  -1.3299450000  1.6295950000
H  -3.5868910000  -1.7750170000  -0.3003380000
H  -5.3392550000  -2.4061690000  -0.0421270000
H  -3.7057530000  -0.9232670000  1.8629620000
H  -4.7648250000  -2.1671470000  2.1732460000
H  -5.5183550000  0.4045240000  1.1898340000
H  -5.5368740000  0.6194410000  -2.1186620000