5
charge=0, multiplicity=2, basis=def2-QZVPP, AUX_BASIS_CORR=rimp2-def2-QZVPPD, SCF_ALGORITHM=GDM, xc_grid=000099000590, mem_total=3750, num_basis=217, num_pairs=23946, num_threads=1
C  -1.1053860000  -0.0000030000  -0.0084210000
S  0.6917120000  0.0000000000  -0.0018470000
H  -1.5056690000  0.8968620000  -0.4796200000
H  -1.4237210000  0.0001390000  1.0390890000
H  -1.5056820000  -0.8969770000  -0.4793960000