17
charge=0, multiplicity=1, basis=def2-QZVPP, AUX_BASIS_CORR=rimp2-def2-QZVPPD, SCF_ALGORITHM=GDM, xc_grid=000099000590, mem_total=7500, num_basis=726, num_pairs=230079, num_threads=2
C  -1.4135890000  -0.7480510000  -0.4803810000
C  -1.0414360000  0.4590140000  -0.0599000000
H  -1.8568300000  -1.2588490000  -1.3155770000
N  0.4358460000  -1.9271770000  -0.4824460000
N  1.1280230000  -1.0982780000  -0.0772030000
N  1.1038370000  0.0597220000  0.3986100000
C  2.2434510000  0.9310620000  0.1539620000
H  2.4662790000  1.0362200000  -0.9124440000
H  1.9829010000  1.9076600000  0.5570760000
H  3.1355010000  0.5773700000  0.6756050000
C  -1.7170620000  -0.4089910000  0.9492580000
H  -2.7420080000  -0.1753170000  1.2449390000
H  -1.1266310000  -0.8627830000  1.7437290000
C  -0.9940480000  1.8901000000  -0.4384710000
H  -0.4583020000  2.4885880000  0.2994720000
H  -0.5240620000  2.0276870000  -1.4141200000
H  -2.0146880000  2.2807430000  -0.4982140000