16
charge=1, multiplicity=1, basis=def2-QZVPP, AUX_BASIS_CORR=rimp2-def2-QZVPPD, SCF_ALGORITHM=GDM, xc_grid=000099000590, mem_total=7500, num_basis=723, num_pairs=219988, num_threads=2
C  -2.8297180000  -0.6691940000  -0.0000110000
C  -1.6225580000  -0.0000050000  0.0000060000
C  -2.8297110000  0.6691970000  0.0000050000
C  -0.2128860000  -0.0000030000  0.0000040000
C  0.4834260000  -1.2209560000  -0.0000030000
C  0.4834210000  1.2209530000  0.0000080000
C  1.8618770000  -1.2141420000  -0.0000070000
H  -0.0625200000  -2.1564610000  -0.0000050000
C  1.8618710000  1.2141450000  0.0000030000
H  -0.0625290000  2.1564560000  0.0000130000
C  2.5451130000  0.0000030000  -0.0000040000
H  2.4111370000  -2.1462610000  -0.0000130000
H  2.4111270000  2.1462670000  0.0000060000
H  3.6284310000  0.0000050000  -0.0000070000
H  -3.3853190000  1.5943530000  0.0000040000
H  -3.3853330000  -1.5943460000  -0.0000020000