19
charge=1, multiplicity=1, basis=def2-QZVPP, AUX_BASIS_CORR=rimp2-def2-QZVPPD, SCF_ALGORITHM=GDM, xc_grid=000099000590, mem_total=15000, num_basis=840, num_pairs=281618, num_threads=4
C  2.9660040000  -0.0026830000  -0.0001060000
C  2.2780340000  -1.2168290000  0.0000480000
C  0.9022290000  -1.2215230000  0.0000920000
C  0.2104110000  0.0073430000  -0.0000210000
C  0.9129610000  1.2280660000  -0.0001740000
C  2.2901490000  1.2161200000  -0.0002170000
H  4.0494760000  -0.0077490000  -0.0001390000
H  2.8259380000  -2.1497350000  0.0001330000
H  0.3486400000  -2.1520620000  0.0002120000
H  0.3734940000  2.1676620000  -0.0002600000
H  2.8447360000  2.1449370000  -0.0003360000
C  -1.1929740000  0.0300270000  0.0000170000
C  -2.2754080000  1.0567180000  -0.0000310000
C  -3.1939040000  -0.1791580000  0.0002000000
H  -2.3094210000  1.6825690000  -0.8919010000
H  -2.3093020000  1.6829150000  0.8915970000
H  -3.7633670000  -0.3798730000  0.9028270000
O  -1.9602010000  -1.0146360000  0.0001580000
H  -3.7635980000  -0.3800690000  -0.9022370000