15
charge=0, multiplicity=2, basis=def2-QZVPP, AUX_BASIS_CORR=rimp2-def2-QZVPPD, SCF_ALGORITHM=GDM, xc_grid=000099000590, mem_total=7500, num_basis=774, num_pairs=248346, num_threads=2
C  0.4645780000  0.7057050000  -0.0000360000
C  0.4817930000  -0.6821270000  0.0000850000
N  1.5691750000  -1.4287040000  0.0002070000
C  2.7195770000  -0.7562650000  0.0002100000
C  2.8136460000  0.6370970000  0.0000960000
C  1.6583710000  1.4035010000  -0.0000310000
C  -0.9307170000  1.1977460000  -0.0001540000
C  -0.9204550000  -1.2024710000  0.0000580000
H  3.6211700000  -1.3591710000  0.0003110000
H  3.7900610000  1.1036380000  0.0001090000
H  1.6793610000  2.4860390000  -0.0001240000
O  -1.3529550000  -2.3060970000  0.0001250000
O  -1.3640540000  2.3061820000  -0.0002710000
N  -1.7352030000  -0.0014280000  -0.0000930000
O  -2.9891370000  -0.0049220000  -0.0001620000