44
charge=0, multiplicity=1, basis=def2-QZVPP, mem_total=120000, AUX_BASIS_CORR=rimp2-def2-QZVPPD, SCF_ALGORITHM=GDM, xc_grid=000099000590, num_basis=1860, num_pairs=1113656, num_threads=32
C  2.0226470000  -0.7917670000  0.0932970000
C  0.5340090000  -0.9039620000  -0.2178550000
C  -0.2228090000  0.2905170000  0.4473050000
C  2.5676010000  0.5710340000  -0.3339800000
H  2.1849730000  -0.9418290000  1.1723000000
C  1.7763170000  1.7479440000  0.2067070000
H  3.6105880000  0.6812460000  -0.0328640000
H  2.5396590000  0.6137720000  -1.4268010000
C  0.2935590000  1.6113590000  -0.1164230000
H  1.8867730000  1.7938120000  1.3031360000
C  -0.1321620000  -2.2453710000  0.0682830000
C  -1.4359600000  -2.3089520000  -0.2118370000
C  -1.7508610000  0.0685930000  0.3794110000
C  -2.0663740000  -1.0321340000  -0.6521710000
C  0.6229750000  -3.4128320000  0.6284220000
H  -0.0651940000  -4.2201820000  0.8832870000
H  1.1677470000  -3.1339750000  1.5352370000
H  1.3620150000  -3.7826000000  -0.0815880000
H  -0.2750320000  2.4380350000  0.3052470000
H  0.1592520000  1.6497430000  -1.2031390000
C  -3.5534590000  -0.8472100000  -0.8615070000
H  -3.9111980000  -1.1574170000  -1.8414140000
H  -4.1647760000  -1.3196750000  -0.0893730000
C  -2.6804180000  1.1684320000  -0.1177070000
O  2.6893380000  -1.8237410000  -0.6160800000
O  2.3609300000  2.9097080000  -0.3506930000
O  -2.6344690000  2.3495190000  0.0565800000
O  -3.7187500000  0.5853290000  -0.7760810000
C  3.9905490000  -2.1091860000  -0.1607020000
H  3.9903280000  -2.3488020000  0.9108600000
H  4.3398860000  -2.9781660000  -0.7169250000
H  4.6842120000  -1.2804000000  -0.3360440000
C  1.9287800000  4.1213510000  0.2252440000
H  2.5523970000  4.9109130000  -0.1916870000
H  0.8815370000  4.3405480000  -0.0059670000
H  2.0542910000  4.1068370000  1.3158740000
C  -2.2743600000  -0.2752560000  1.7885540000
H  -2.0927050000  0.5724550000  2.4516560000
H  -1.7486530000  -1.1446370000  2.1818610000
H  -3.3455480000  -0.4843980000  1.8043300000
H  -2.0168610000  -3.2113730000  -0.0545210000
H  -1.5933350000  -0.7094740000  -1.5901210000
H  0.0444390000  0.2764290000  1.5097410000
H  0.4585990000  -0.7527430000  -1.3031430000