36
charge=1, multiplicity=1, basis=def2-QZVPP, AUX_BASIS_CORR=rimp2-def2-QZVPPD, SCF_ALGORITHM=GDM, xc_grid=000099000590, mem_total=60000, num_basis=1485, num_pairs=778362, num_threads=16
C  1.2037940000  1.3506140000  0.0411350000
C  1.2038470000  -1.3505930000  0.0411400000
C  -0.3218430000  -1.2485560000  0.1116580000
C  -0.8480650000  -0.0000300000  0.8188960000
C  -0.3218920000  1.2485200000  0.1116630000
H  -0.7355750000  -1.2683070000  -0.8969390000
H  -0.6725680000  -2.1455930000  0.6252890000
H  -0.5172480000  -0.0000300000  1.8595100000
H  -0.7356300000  1.2682580000  -0.8969320000
H  -0.6726440000  2.1455440000  0.6252980000
N  1.7704380000  0.0000200000  -0.4009060000
O  2.7237470000  0.0000380000  -1.0929210000
C  1.6367920000  2.3839570000  -0.9893840000
H  1.1502930000  3.3245700000  -0.7308380000
H  2.7134320000  2.5441720000  -0.9894580000
H  1.3163970000  2.1052890000  -1.9939670000
C  1.8518010000  1.6569600000  1.4033100000
H  2.9375740000  1.5648940000  1.3586250000
H  1.6138040000  2.6958470000  1.6328820000
H  1.4708370000  1.0400020000  2.2123760000
C  1.6368890000  -2.3839230000  -0.9893730000
H  2.7135360000  -2.5440960000  -0.9894430000
H  1.1504260000  -3.3245540000  -0.7308240000
H  1.3164860000  -2.1052730000  -1.9939580000
C  1.8518600000  -1.6569080000  1.4033190000
H  1.6139020000  -2.6958030000  1.6328940000
H  2.9376300000  -1.5648010000  1.3586370000
H  1.4708710000  -1.0399610000  2.2123810000
N  -2.3011200000  -0.0000720000  0.8722240000
C  -3.0929680000  -0.0000500000  -0.2453630000
C  -4.5777510000  0.0000430000  -0.0062910000
H  -5.0061660000  0.8787980000  -0.4891100000
H  -5.0064230000  -0.8780820000  -0.4900110000
H  -4.8521880000  -0.0004430000  1.0483380000
O  -2.6090920000  -0.0000790000  -1.3626080000
H  -2.7439930000  0.0000550000  1.7759910000