31
charge=0, multiplicity=2, basis=def2-QZVPP, AUX_BASIS_CORR=rimp2-def2-QZVPPD, SCF_ALGORITHM=GDM, xc_grid=000099000590, mem_total=30000, num_basis=1294, num_pairs=556757, num_threads=8
C  -1.1993110000  -2.1419120000  -0.4702720000
C  -2.0677070000  -1.2187780000  0.2782870000
O  -2.4489460000  -0.1757830000  -0.4794670000
C  -3.2059530000  0.8474370000  0.1846240000
C  -3.4371960000  1.9571330000  -0.8114160000
O  -2.3750100000  -1.3428300000  1.4387320000
Cl  0.6832200000  -1.2225740000  -0.3443430000
H  -1.3491090000  -2.1748920000  -1.5409280000
H  -1.0353350000  -3.0890330000  0.0244220000
H  -2.6429320000  1.1884560000  1.0556690000
H  -4.1421120000  0.4164740000  0.5448090000
H  -2.4884500000  2.3695130000  -1.1586590000
H  -4.0124000000  2.7600320000  -0.3460220000
H  -3.9922580000  1.5931680000  -1.6773490000
C  2.5289040000  -0.0114030000  -0.1315900000
C  2.4404120000  0.4388670000  1.2992400000
C  2.2104590000  1.1889080000  -0.9769370000
C  3.6022440000  -0.9593310000  -0.5506980000
C  1.3801920000  1.5560300000  1.3164790000
C  1.1911390000  1.9975990000  -0.1589470000
H  3.4277210000  0.8332250000  1.5806030000
H  2.2215540000  -0.3806830000  1.9846380000
H  1.8600960000  0.9234900000  -1.9752000000
H  3.1447310000  1.7557220000  -1.1052360000
H  3.6354370000  -1.8375190000  0.0951240000
H  4.5758170000  -0.4549850000  -0.4839120000
H  3.4660560000  -1.2889930000  -1.5813300000
H  1.6923500000  2.3851850000  1.9526610000
H  0.4425710000  1.1762780000  1.7225700000
H  0.1820290000  1.7586750000  -0.4952950000
H  1.3320480000  3.0712560000  -0.2894780000