18
charge=0, multiplicity=2, basis=def2-QZVPP, AUX_BASIS_CORR=rimp2-def2-QZVPPD, SCF_ALGORITHM=GDM, xc_grid=000099000590, mem_total=7500, num_basis=810, num_pairs=273737, num_threads=2
O  -2.2437400000  1.0366890000  -0.0062310000
C  -2.0459980000  -0.1648690000  -0.0568130000
O  -2.8824030000  -0.9982340000  -0.7009460000
C  -0.9126350000  -0.8309860000  0.5372970000
C  0.0361640000  -0.0965470000  1.4124860000
H  -0.7476370000  -1.8733130000  0.2970390000
C  1.1571010000  0.6407960000  0.6425390000
H  0.5216320000  -0.8071940000  2.0812790000
H  -0.5004520000  0.6449820000  2.0084110000
C  1.9329920000  -0.3751730000  -0.2138170000
O  2.0278230000  -0.0353870000  -1.4924110000
N  0.6827830000  1.7445790000  -0.1904790000
H  -3.5931290000  -0.4622430000  -1.0789080000
H  1.8693600000  1.0059370000  1.3862290000
H  1.0681480000  2.6338720000  0.0963890000
H  -0.3313110000  1.8189180000  -0.1973720000
H  1.5423580000  0.8202510000  -1.5609410000
O  2.3965450000  -1.3821420000  0.2459740000