16
charge=0, multiplicity=1, basis=def2-QZVPP, AUX_BASIS_CORR=rimp2-def2-QZVPPD, SCF_ALGORITHM=GDM, xc_grid=000099000590, mem_total=7500, num_basis=804, num_pairs=263954, num_threads=2
C  -0.5153860000  0.7055950000  0.0072050000
C  -0.5317120000  -0.6807790000  0.0077720000
N  -1.6142550000  -1.4304150000  0.0051120000
C  -2.7674680000  -0.7574690000  -0.0066810000
C  -2.8622770000  0.6331690000  -0.0101220000
C  -1.7054710000  1.4027540000  0.0002160000
C  0.8962220000  1.1795360000  0.0180290000
C  0.8879070000  -1.1816310000  0.0158610000
H  -3.6682060000  -1.3616040000  -0.0130410000
H  -3.8389300000  1.0992520000  -0.0203810000
H  -1.7283710000  2.4853280000  -0.0000240000
O  1.3242510000  -2.2893970000  -0.0337490000
O  1.3298330000  2.2936950000  -0.0295310000
N  1.6497660000  0.0005070000  0.1126490000
O  2.9886740000  -0.0015440000  -0.1482220000
H  3.4339810000  -0.0427150000  0.7074610000