43
charge=0, multiplicity=1, basis=def2-QZVPP, mem_total=120000, AUX_BASIS_CORR=rimp2-def2-QZVPPD, SCF_ALGORITHM=GDM, xc_grid=000099000590, num_basis=1965, num_pairs=997714, num_threads=32
C  -6.2839720000  -0.0112870000  -1.1694190000
C  -6.1383960000  -0.5399640000  0.1051680000
C  -4.8768810000  -0.7311460000  0.6436910000
C  -3.7304450000  -0.3930820000  -0.0823540000
C  -3.8828170000  0.1390500000  -1.3655880000
C  -5.1506210000  0.3232740000  -1.8959140000
H  -7.2702650000  0.1371810000  -1.5911580000
H  -7.0114510000  -0.8094390000  0.6870890000
H  -4.7944900000  -1.1514960000  1.6389700000
H  -3.0077160000  0.4022380000  -1.9396840000
H  -5.2484380000  0.7368150000  -2.8925250000
C  -2.3928890000  -0.5924130000  0.5008910000
C  -1.1063050000  -0.4105900000  -0.1602410000
O  -0.9408260000  -0.0290950000  -1.2870480000
O  -0.0832790000  -0.7481710000  0.6732250000
N  -2.3244330000  -0.9758620000  1.7551830000
N  -2.2984440000  -1.3023210000  2.8273190000
C  1.2182120000  -0.4141130000  0.2572290000
C  2.0399690000  -1.4294490000  0.0058380000
C  1.4826100000  1.0388550000  0.2479800000
C  1.8705750000  1.6857410000  -0.9210600000
C  1.3034290000  1.7825760000  1.4134130000
C  2.1096200000  3.0516270000  -0.9177980000
H  1.9588670000  1.1129890000  -1.8351310000
C  1.5434920000  3.1476870000  1.4162580000
H  0.9866670000  1.2820030000  2.3208050000
C  1.9518450000  3.7838560000  0.2507960000
H  2.4075960000  3.5479480000  -1.8334350000
H  1.4133870000  3.7164390000  2.3290100000
H  2.1369920000  4.8512720000  0.2519770000
C  3.4720970000  -1.4032630000  -0.2486430000
C  4.3938560000  -0.2068140000  -0.1223270000
C  4.1621780000  -2.4869500000  -0.6199850000
C  5.7943230000  -0.8447290000  -0.1016090000
H  4.1875850000  0.3943260000  0.7644650000
C  5.6251330000  -2.2035470000  -0.8073620000
H  6.5530040000  -0.2131790000  -0.5653290000
H  6.0973200000  -1.0156630000  0.9340420000
H  5.8681440000  -2.1398350000  -1.8754520000
H  6.2678580000  -2.9814300000  -0.3880960000
H  4.2712380000  0.4591090000  -0.9812690000
H  1.5891880000  -2.4165970000  0.0339200000
H  3.7174080000  -3.4591860000  -0.7989130000