15
charge=0, multiplicity=1, basis=def2-QZVPP, AUX_BASIS_CORR=rimp2-def2-QZVPPD, SCF_ALGORITHM=GDM, xc_grid=000099000590, mem_total=7500, num_basis=666, num_pairs=191611, num_threads=2
C  -0.2637470000  0.6716550000  -0.0014490000
C  0.9975420000  1.3068850000  0.0093770000
C  2.1301570000  0.5381830000  0.0107010000
C  2.0464640000  -0.8651070000  0.0027360000
C  0.8010510000  -1.4306880000  -0.0058090000
N  -0.3137880000  -0.6824470000  -0.0052850000
H  3.1022220000  1.0173590000  0.0168620000
H  1.0260910000  2.3873350000  0.0130880000
H  2.9314430000  -1.4848250000  0.0011630000
H  0.6510100000  -2.5032050000  -0.0145050000
O  -1.3774040000  1.3194590000  -0.0072910000
H  -2.2226930000  0.5102120000  -0.0227660000
O  -2.7168100000  -0.6440370000  -0.0786690000
H  -1.5014380000  -0.9951850000  -0.0032520000
H  -3.3052090000  -0.8835090000  0.6407570000