31
charge=0, multiplicity=2, basis=def2-QZVPP, mem_total=30000, AUX_BASIS_CORR=rimp2-def2-QZVPPD, SCF_ALGORITHM=GDM, xc_grid=000099000590, num_basis=1362, num_pairs=643882, num_threads=8
C  0.0195930000  0.5267490000  -0.4857800000
C  -0.4243370000  2.9861070000  0.0549230000
C  -0.0354260000  1.9496940000  -0.9703220000
H  0.9362720000  2.2281410000  -1.3870070000
H  -0.7284190000  2.0309420000  -1.8151850000
C  -0.6684460000  2.7646860000  1.3375390000
H  -2.4128870000  -2.8511490000  1.5308480000
C  -2.4212600000  -1.9937150000  0.8682130000
C  -1.2403070000  -1.3255220000  0.6081670000
H  -0.3310690000  -1.6555510000  1.0908870000
C  -1.2028030000  -0.1945890000  -0.2381630000
C  -2.4348970000  0.2353570000  -0.7762990000
H  -2.4691080000  1.1089290000  -1.4122590000
C  -3.6115040000  -0.4417780000  -0.5181640000
H  -4.5366250000  -0.0886350000  -0.9582230000
C  -3.6168500000  -1.5651500000  0.3011930000
H  -4.5411820000  -2.0912870000  0.5051660000
H  3.0552160000  -2.9784540000  -0.5829120000
C  2.8694320000  -1.9383280000  -0.3423700000
C  1.6054050000  -1.4086340000  -0.5349370000
H  0.8207270000  -2.0336180000  -0.9407540000
C  1.3317990000  -0.0591020000  -0.2533860000
C  2.3933600000  0.7330780000  0.2169250000
H  2.2137770000  1.7742790000  0.4549950000
C  3.6531550000  0.1967840000  0.4197180000
H  4.4481530000  0.8273750000  0.7998480000
C  3.9002300000  -1.1421950000  0.1425570000
H  4.8878810000  -1.5594660000  0.2960650000
H  -0.9321160000  3.5765710000  2.0040970000
H  -0.6224130000  1.7694600000  1.7643760000
H  -0.4910760000  4.0017980000  -0.3288220000