30
charge=0, multiplicity=2, basis=def2-QZVPP, AUX_BASIS_CORR=rimp2-def2-QZVPPD, SCF_ALGORITHM=GDM, xc_grid=000099000590, mem_total=30000, num_basis=1386, num_pairs=673026, num_threads=8
O  -1.8122760000  0.5052730000  -1.3569790000
C  -2.9553450000  -0.2417030000  -0.9053940000
C  -2.8022030000  -0.3366270000  0.6264010000
C  -2.1012730000  0.9960230000  0.9575090000
C  -1.3190330000  1.3452880000  -0.3463370000
C  -3.0182090000  -1.5236220000  -1.6290020000
H  -3.8605260000  0.3500940000  -1.1065640000
H  -3.9522810000  -2.0638050000  -1.6915330000
H  -2.1013570000  -1.9916060000  -1.9579650000
O  -2.0605090000  -1.4264460000  1.0965470000
H  -3.7800480000  -0.3992500000  1.1033700000
H  -1.1926200000  -1.4808720000  0.6267420000
O  -1.3122930000  0.9305150000  2.1048170000
H  -2.8523330000  1.7769530000  1.1018870000
H  -1.1911410000  -0.0110740000  2.3013470000
N  0.1186430000  1.2020340000  -0.2656730000
H  -1.4852720000  2.3920300000  -0.6167200000
C  1.0294840000  2.2241070000  -0.4264640000
N  2.2688660000  1.8397730000  -0.3710930000
C  2.1873050000  0.4786270000  -0.1667460000
C  0.8664510000  0.0631300000  -0.0966260000
N  0.4657130000  -1.1987110000  0.0972480000
C  1.4807840000  -2.0482460000  0.2143970000
N  2.7823630000  -1.7811080000  0.1564580000
C  3.1691110000  -0.5140650000  -0.0319320000
N  4.4819710000  -0.2325530000  -0.0867380000
H  5.1477510000  -0.9781270000  0.0233070000
H  4.7899510000  0.7154660000  -0.2200520000
H  1.2167270000  -3.0873670000  0.3794410000
H  0.6964570000  3.2393160000  -0.5845880000