15
charge=0, multiplicity=2, basis=def2-QZVPP, AUX_BASIS_CORR=rimp2-def2-QZVPPD, SCF_ALGORITHM=GDM, xc_grid=000099000590, mem_total=7500, num_basis=774, num_pairs=248346, num_threads=2
C  -0.4645790000  0.7057080000  0.0000600000
C  -0.4817940000  -0.6821260000  -0.0000670000
N  -1.5691750000  -1.4287050000  -0.0001590000
C  -2.7195770000  -0.7562650000  -0.0001270000
C  -2.8136460000  0.6370980000  -0.0000040000
C  -1.6583720000  1.4035050000  0.0000910000
C  0.9307190000  1.1977400000  0.0001500000
C  0.9204570000  -1.2024640000  -0.0000970000
H  -3.6211720000  -1.3591690000  -0.0002010000
H  -3.7900630000  1.1036370000  0.0000160000
H  -1.6793630000  2.4860430000  0.0001900000
O  1.3529500000  -2.3060950000  -0.0001780000
O  1.3640590000  2.3061770000  0.0002340000
N  1.7352000000  -0.0014310000  0.0000340000
O  2.9891380000  -0.0049240000  0.0000490000