12
charge=0, multiplicity=1, basis=def2-QZVPP, AUX_BASIS_CORR=rimp2-def2-QZVPPD, SCF_ALGORITHM=GDM, xc_grid=000099000590, mem_total=3750, num_basis=589, num_pairs=158860, num_threads=1
C  -1.8785030000  0.7658010000  -0.0000010000
C  -1.8785030000  -0.7658010000  -0.0000080000
C  -0.4226690000  1.1841540000  0.0000000000
N  0.3244520000  0.0000000000  -0.0000220000
C  -0.4226690000  -1.1841540000  0.0000000000
O  0.0338570000  -2.2879090000  0.0000210000
O  0.0338570000  2.2879090000  0.0000180000
Cl  2.0134930000  0.0000000000  -0.0000040000
H  -2.3570490000  1.1993760000  0.8782200000
H  -2.3570480000  1.1993820000  -0.8782210000
H  -2.3570400000  -1.1993730000  -0.8782370000
H  -2.3570570000  -1.1993850000  0.8782040000