12
charge=0, multiplicity=1, basis=def2-QZVPP, AUX_BASIS_CORR=rimp2-def2-QZVPPD, SCF_ALGORITHM=GDM, xc_grid=000099000590, mem_total=3750, num_basis=522, num_pairs=119249, num_threads=1
C  -1.3154220000  -0.6437570000  0.0000010000
C  -0.0435290000  0.1159270000  0.0000040000
C  -2.4788660000  -0.0102610000  0.0000150000
O  1.0106660000  -0.7153110000  -0.0000220000
O  0.0602900000  1.3153440000  0.0000290000
C  2.2959740000  -0.0890910000  -0.0000230000
H  3.0183700000  -0.9007570000  -0.0000950000
H  2.4153780000  0.5323940000  -0.8873680000
H  2.4154330000  0.5322830000  0.8873930000
H  -1.2378750000  -1.7237150000  -0.0000160000
H  -2.5108450000  1.0731050000  0.0000300000
H  -3.4170570000  -0.5504870000  0.0000110000