24
charge=0, multiplicity=2, basis=def2-QZVPP, AUX_BASIS_CORR=rimp2-def2-QZVPPD, SCF_ALGORITHM=GDM, xc_grid=000099000590, mem_total=15000, num_basis=990, num_pairs=393830, num_threads=4
C  -2.0000350000  0.0471590000  -0.0471460000
C  -1.1720950000  1.2913280000  -0.0697900000
C  -1.2713720000  -1.2548280000  -0.1364380000
C  -3.4212800000  0.1176540000  -0.4816570000
H  -3.5057180000  0.1498540000  -1.5803390000
H  -3.9170420000  1.0146650000  -0.1015910000
H  -3.9878480000  -0.7556550000  -0.1489550000
C  0.0953550000  1.1593550000  0.7790450000
H  -1.7571640000  2.1505090000  0.2724120000
H  -0.8699400000  1.5169750000  -1.1077120000
C  -0.0017700000  -1.2733530000  0.7165220000
H  -0.9807530000  -1.4469980000  -1.1833530000
H  -1.9251580000  -2.0819610000  0.1557270000
N  0.7917240000  -0.0780800000  0.4730430000
H  -0.1777920000  1.1459830000  1.8401480000
H  0.7523390000  2.0104870000  0.6241910000
C  1.9989930000  -0.1791860000  -0.1561920000
H  0.6170320000  -2.1375800000  0.4913260000
H  -0.2685250000  -1.2988620000  1.7786330000
O  2.4723310000  -1.2571270000  -0.4748930000
C  2.7494480000  1.1057110000  -0.4388790000
H  2.1906400000  1.7574020000  -1.1135440000
H  3.6904450000  0.8333240000  -0.9091670000
H  2.9553030000  1.6623930000  0.4772620000