26
charge=1, multiplicity=1, basis=def2-QZVPP, AUX_BASIS_CORR=rimp2-def2-QZVPPD, SCF_ALGORITHM=GDM, xc_grid=000099000590, mem_total=15000, num_basis=1131, num_pairs=400603, num_threads=4
C  -3.5781870000  0.2599610000  -0.0000870000
O  -4.6223830000  -0.4968260000  -0.0001760000
C  -5.9446530000  0.0838930000  0.0002460000
H  -5.8819620000  1.1721520000  -0.0022840000
H  -6.4511790000  -0.2714080000  0.8942340000
C  -2.3113440000  -0.2687360000  -0.0000630000
H  -2.2028440000  -1.3450820000  -0.0000420000
C  -1.2250530000  0.5930730000  -0.0000660000
H  -1.4483950000  1.6578910000  -0.0000850000
H  -6.4532300000  -0.2753730000  -0.8909660000
C  0.1388730000  0.2586280000  -0.0000400000
C  1.0933180000  1.3004300000  -0.0000290000
C  0.6122920000  -1.0806990000  -0.0000220000
C  2.4409560000  1.0451210000  0.0000020000
H  0.7500610000  2.3286530000  -0.0000440000
C  1.9469440000  -1.3479640000  0.0000060000
H  -0.0879550000  -1.9056370000  -0.0000320000
C  2.8820870000  -0.2888290000  0.0000190000
H  3.1461160000  1.8628620000  0.0000110000
H  2.3272270000  -2.3606830000  0.0000180000
O  4.1494450000  -0.6532370000  0.0000470000
C  5.1870170000  0.3326700000  0.0000550000
H  5.1270680000  0.9501830000  0.8975770000
H  6.1168050000  -0.2273400000  0.0000720000
H  5.1270930000  0.9501700000  -0.8974780000
H  -3.7388090000  1.3388230000  -0.0000780000