12
charge=0, multiplicity=2, basis=def2-QZVPP, AUX_BASIS_CORR=rimp2-def2-QZVPPD, SCF_ALGORITHM=GDM, xc_grid=000099000590, mem_total=3750, num_basis=522, num_pairs=129858, num_threads=1
C  0.0000010000  0.7611000000  1.1542830000
C  0.0000010000  -0.5963450000  1.2306890000
H  0.0000060000  1.3554840000  2.0623740000
C  -0.0000040000  -1.4329040000  0.0000000000
H  0.0000040000  -1.0839560000  2.1982390000
C  0.0000010000  -0.5963450000  -1.2306890000
H  -0.8658340000  -2.1146910000  0.0000000000
H  0.8658150000  -2.1147050000  0.0000000000
C  0.0000010000  0.7611000000  -1.1542830000
H  0.0000040000  -1.0839560000  -2.1982390000
H  0.0000060000  1.3554840000  -2.0623740000
N  0.0000000000  1.4723870000  0.0000000000