32
charge=-1, multiplicity=1, basis=def2-QZVPP, AUX_BASIS_CORR=rimp2-def2-QZVPPD, SCF_ALGORITHM=GDM, xc_grid=000099000590, mem_total=60000, num_basis=1473, num_pairs=690383, num_threads=16
C  0.9596550000  -0.6022480000  -0.2249550000
C  0.9796630000  0.8084580000  -0.2908340000
N  -0.2020460000  1.4641390000  -0.5826800000
N  -0.2555380000  -1.2801660000  -0.4275940000
C  -1.4588430000  -0.5837900000  -0.1905840000
C  -1.4049380000  0.7906000000  -0.2368040000
N  -2.5464840000  -1.3095420000  0.0544700000
C  -3.7140930000  -0.6600530000  0.2825030000
N  -3.6745280000  0.7417100000  0.2860460000
C  -2.5657760000  1.5380450000  0.0375400000
C  -0.2660030000  -2.7233180000  -0.3881130000
H  0.4082660000  -3.1208100000  -1.1518200000
H  -1.2837090000  -3.0523110000  -0.5736630000
H  0.0448770000  -3.1121990000  0.5912600000
H  -4.5460600000  1.2143580000  0.4715400000
O  -4.7941040000  -1.2117640000  0.4947290000
O  -2.6380810000  2.7784360000  0.0584750000
C  2.1534310000  -1.2668070000  0.0121430000
C  3.3716090000  -0.5932740000  0.1675820000
C  3.3854750000  0.7946950000  0.1055350000
C  2.1835550000  1.4721460000  -0.1118600000
C  4.6358640000  -1.3760870000  0.4041110000
H  5.1094070000  -1.1099990000  1.3550940000
H  5.3798390000  -1.1985400000  -0.3799060000
H  4.4301920000  -2.4475620000  0.4268520000
C  4.6660880000  1.5682770000  0.2726580000
H  5.4051940000  1.2979570000  -0.4885120000
H  5.1300970000  1.3788170000  1.2460190000
H  4.4857380000  2.6414820000  0.1942380000
H  2.1834950000  2.5568270000  -0.1606760000
H  2.1537300000  -2.3466530000  0.0734520000
H  -0.2475410000  2.4524080000  -0.3747430000