33
charge=1, multiplicity=2, basis=def2-QZVPP, AUX_BASIS_CORR=rimp2-def2-QZVPPD, SCF_ALGORITHM=GDM, xc_grid=000099000590, mem_total=30000, num_basis=1449, num_pairs=594552, num_threads=8
N  0.8290110000  0.2269570000  0.1486680000
C  1.9350670000  1.0417270000  0.5445100000
H  1.0457300000  -0.6534490000  -0.3114930000
C  2.6988120000  1.7134740000  -0.5560110000
H  1.6466320000  1.7266590000  1.3357690000
H  2.7690780000  0.1980490000  1.1140030000
O  2.9748380000  0.9733850000  -1.6474070000
N  3.1000200000  2.9073840000  -0.5219780000
H  2.8235170000  3.3753930000  0.3357750000
C  3.3795420000  -0.9923720000  1.5245500000
C  3.6122900000  -1.6302030000  0.2244320000
H  2.5441780000  -1.4082780000  2.0790550000
H  4.2568840000  -0.7507130000  2.1128470000
O  2.7449990000  -1.7400240000  -0.6331280000
O  4.8621600000  -2.0153290000  0.0158930000
H  4.9375660000  -2.3678170000  -0.8844230000
C  -0.4429010000  0.5464640000  0.4473750000
C  -1.4977130000  -0.4441410000  -0.0420830000
O  -0.7848470000  1.5452670000  1.0551110000
N  -2.7802100000  0.1430420000  0.2913750000
H  -1.3727390000  -1.4123420000  0.4487330000
H  -1.4142860000  -0.5996910000  -1.1194930000
H  -2.6940600000  1.0183730000  0.8097680000
H  2.7525260000  0.0404730000  -1.5276180000
C  -3.9328420000  -0.3593550000  -0.0966150000
C  -5.2080650000  0.4097870000  0.2982000000
O  -4.0900050000  -1.3894170000  -0.7485850000
N  -6.3088330000  -0.4020830000  -0.3010110000
H  -5.2162640000  1.4167800000  -0.1144780000
H  -5.3275720000  0.4635210000  1.3785820000
H  -5.7519820000  -1.1966810000  -0.7509320000
H  -6.8406290000  0.0968040000  -1.0143080000
H  -6.9607990000  -0.7775210000  0.3876050000