61
charge=0, multiplicity=2, basis=def2-QZVPP, mem_total=240000, AUX_BASIS_CORR=rimp2-def2-QZVPPD, SCF_ALGORITHM=GDM, xc_grid=000099000590, num_basis=2422, num_pairs=1638473, num_threads=64
C  2.5281220000  -1.2284110000  -0.6593480000
C  1.3720220000  -1.1495490000  -1.4055140000
H  2.6768330000  -2.1247150000  -0.0582390000
H  1.3162540000  -0.3645290000  -2.1534230000
Si  -0.4460430000  -0.0454960000  -0.0746460000
Si  -2.3917850000  -0.4261000000  -1.3542280000
Si  -0.3479640000  2.2845640000  0.2903640000
Si  -0.6329890000  -1.1555850000  1.9849550000
C  0.5666320000  -0.4516530000  3.2569940000
H  0.4489910000  -0.9687890000  4.2138060000
H  1.6046410000  -0.5670380000  2.9406450000
H  0.3870430000  0.6115570000  3.4323710000
C  -0.2868840000  -2.9998180000  1.8080210000
H  -0.4214310000  -3.5046990000  2.7690710000
H  -0.9608000000  -3.4690180000  1.0879910000
H  0.7382530000  -3.1817170000  1.4781910000
C  -2.3809030000  -0.9488300000  2.6684300000
H  -2.6354540000  0.1040790000  2.8056820000
H  -3.1292460000  -1.3864450000  2.0045740000
H  -2.4696280000  -1.4438510000  3.6403030000
C  -2.0400330000  -0.0844320000  -3.1772920000
H  -1.2588640000  -0.7318270000  -3.5805180000
H  -2.9422570000  -0.2412510000  -3.7756970000
H  -1.7191980000  0.9492550000  -3.3257600000
C  -3.0196580000  -2.1974640000  -1.1674620000
H  -3.8975810000  -2.3475300000  -1.8028960000
H  -2.2764820000  -2.9454980000  -1.4460400000
H  -3.3229140000  -2.4006860000  -0.1379860000
C  -3.8201680000  0.6980930000  -0.8439050000
H  -4.7084780000  0.4524500000  -1.4340020000
H  -4.0759490000  0.5724490000  0.2102330000
H  -3.5940590000  1.7526410000  -1.0118410000
C  1.2100830000  2.9419620000  1.1247480000
H  1.0632400000  4.0057720000  1.3358180000
H  1.4045930000  2.4436680000  2.0764680000
H  2.1033190000  2.8488760000  0.5081190000
C  -1.7650630000  2.7823660000  1.4367110000
H  -1.6232450000  2.3602260000  2.4345440000
H  -1.7913860000  3.8714540000  1.5419150000
H  -2.7390100000  2.4564190000  1.0722560000
C  -0.5459010000  3.1875090000  -1.3542710000
H  0.2480790000  2.9194260000  -2.0557000000
H  -1.5005120000  2.9543600000  -1.8305580000
H  -0.5055960000  4.2702750000  -1.2046130000
C  0.6728480000  -2.4379600000  -1.7869090000
H  -0.3100210000  -2.2670430000  -2.2180460000
H  1.2697810000  -2.9684660000  -2.5352160000
H  0.5557080000  -3.1008230000  -0.9292480000
C  4.9491460000  -0.8385230000  -0.8994820000
C  3.6077600000  -0.1893500000  -0.5179810000
H  5.1528040000  -1.7121210000  -0.2753060000
H  4.9445620000  -1.1624770000  -1.9424540000
H  5.7704450000  -0.1289370000  -0.7640880000
C  3.3679450000  1.0203390000  -1.4226080000
C  3.6838210000  0.2546330000  0.9516220000
H  4.1455990000  1.7712170000  -1.2640060000
H  2.4041800000  1.4894070000  -1.2231740000
H  3.3914600000  0.7340090000  -2.4765880000
H  4.4769000000  0.9939360000  1.0945480000
H  2.7444020000  0.6975760000  1.2779880000
H  3.8993440000  -0.5984040000  1.6001270000