16
charge=-1, multiplicity=1, basis=def2-QZVPP, AUX_BASIS_CORR=rimp2-def2-QZVPPD, SCF_ALGORITHM=GDM, xc_grid=000099000590, mem_total=7500, num_basis=669, num_pairs=199199, num_threads=2
C  -1.7828820000  1.0761110000  -0.3934690000
C  -1.1935910000  -0.2180240000  0.1127620000
C  -0.0044110000  -0.0718250000  1.0161880000
O  -1.6399180000  -1.2985850000  -0.2341900000
C  1.2334870000  0.2378170000  0.1469000000
H  -2.4268270000  1.4909540000  0.3899960000
H  -0.9742380000  1.7904230000  -0.5727780000
H  -2.3804540000  0.8971060000  -1.2880200000
C  1.8709690000  -1.0315090000  -0.3989550000
H  2.2449980000  -1.6815910000  0.4066390000
H  2.7123700000  -0.7793520000  -1.0483760000
H  1.1612000000  -1.6394710000  -0.9758880000
C  1.5970940000  1.5095750000  -0.0798670000
H  2.4921400000  1.5198460000  -0.7365350000
H  0.1156950000  -0.9972870000  1.5892970000
H  -0.1495360000  0.7751820000  1.6878390000