36
charge=1, multiplicity=1, basis=def2-QZVPP, AUX_BASIS_CORR=rimp2-def2-QZVPPD, SCF_ALGORITHM=GDM, xc_grid=000099000590, mem_total=60000, num_basis=1485, num_pairs=778353, num_threads=16
C  -1.2038520000  -1.3505940000  0.0411480000
C  -1.2037970000  1.3506170000  0.0411410000
C  0.3218910000  1.2485210000  0.1116690000
C  0.8480620000  -0.0000310000  0.8189000000
C  0.3218390000  -1.2485590000  0.1116660000
H  0.7356270000  1.2682620000  -0.8969280000
H  0.6726420000  2.1455450000  0.6253060000
H  0.5172470000  -0.0000300000  1.8595150000
H  0.7355690000  -1.2683150000  -0.8969320000
H  0.6725620000  -2.1455950000  0.6253000000
N  -1.7704280000  0.0000220000  -0.4009260000
O  -2.7236970000  0.0000410000  -1.0929920000
C  -1.6368920000  -2.3839400000  -0.9893490000
H  -1.1504320000  -3.3245680000  -0.7307840000
H  -2.7135390000  -2.5441130000  -0.9894180000
H  -1.3164890000  -2.1053070000  -1.9939390000
C  -1.8518660000  -1.6568900000  1.4033280000
H  -2.9376350000  -1.5647590000  1.3586540000
H  -1.6139330000  -2.6957910000  1.6329030000
H  -1.4708590000  -1.0399530000  2.2123890000
C  -1.6367910000  2.3839730000  -0.9893650000
H  -2.7134320000  2.5441890000  -0.9894390000
H  -1.1502940000  3.3245830000  -0.7308060000
H  -1.3163970000  2.1053190000  -1.9939530000
C  -1.8518040000  1.6569480000  1.4033160000
H  -1.6138310000  2.6958410000  1.6328860000
H  -2.9375760000  1.5648600000  1.3586400000
H  -1.4708230000  1.0400010000  2.2123830000
N  2.3011160000  -0.0000760000  0.8722240000
C  3.0929600000  -0.0000580000  -0.2453650000
C  4.5777430000  0.0000530000  -0.0062970000
H  5.0064410000  -0.8780070000  -0.4901120000
H  5.0061320000  0.8788740000  -0.4890190000
H  4.8521820000  -0.0005360000  1.0483330000
O  2.6090830000  -0.0000940000  -1.3626100000
H  2.7439910000  0.0000590000  1.7759910000