28
charge=0, multiplicity=2, basis=def2-QZVPP, AUX_BASIS_CORR=rimp2-def2-QZVPPD, SCF_ALGORITHM=GDM, xc_grid=000099000590, mem_total=30000, num_basis=1150, num_pairs=509117, num_threads=8
P  -0.0008860000  -0.0469190000  -0.4711360000
O  0.0335310000  -0.3382900000  -1.9248600000
N  1.1665660000  -0.9970010000  0.3237440000
N  -1.5243130000  -0.2988010000  0.1593910000
N  0.3694950000  1.4851150000  0.0836260000
C  1.7492290000  1.9475350000  -0.0325250000
H  1.9616890000  2.3378950000  -1.0346920000
H  1.9183080000  2.7461060000  0.6937860000
H  2.4420280000  1.1378120000  0.1833790000
C  -0.5944810000  2.5561440000  -0.1509460000
H  -0.4484860000  3.3386280000  0.5979720000
H  -0.4705520000  3.0001720000  -1.1456130000
H  -1.6100310000  2.1766540000  -0.0666300000
C  1.7577600000  -2.1292520000  -0.3835550000
H  1.5388830000  -2.0419510000  -1.4444800000
H  2.8410710000  -2.1233290000  -0.2385870000
H  1.3579030000  -3.0757710000  -0.0072930000
C  1.4132130000  -0.9033480000  1.6823690000
H  2.1655580000  -1.5566160000  2.0978260000
H  1.1047780000  -0.0117000000  2.2036700000
C  -2.4101660000  -1.2301230000  -0.5258430000
H  -2.3678430000  -2.2326590000  -0.0814080000
H  -3.4398690000  -0.8683470000  -0.4563560000
H  -2.1304770000  -1.2941170000  -1.5747910000
C  -1.8254170000  -0.1176180000  1.5696980000
H  -2.8737830000  0.1754230000  1.6777170000
H  -1.6605310000  -1.0349880000  2.1468940000
H  -1.2066520000  0.6716760000  1.9920100000