62
charge=1, multiplicity=1, basis=def2-QZVPP, mem_total=240000, AUX_BASIS_CORR=rimp2-def2-QZVPPD, SCF_ALGORITHM=GDM, xc_grid=000099000590, num_basis=2643, num_pairs=1783357, num_threads=64
C  -1.3119970000  -0.2510470000  -0.8874170000
C  -1.7806960000  -1.1177020000  1.5768420000
C  -3.2376570000  -1.3243830000  1.1435240000
C  -3.6786050000  -0.3672640000  0.0515660000
C  -2.7856590000  -0.5558130000  -1.1696040000
H  -3.3538120000  -2.3536650000  0.7876830000
H  -3.8666580000  -1.2134400000  2.0292080000
H  -3.5990160000  0.6653330000  0.3945810000
H  -2.8827820000  -1.5868490000  -1.5234460000
H  -3.1201770000  0.1049970000  -1.9693490000
N  -0.9264420000  -0.9705570000  0.3618420000
O  0.3025910000  -1.2654310000  0.5061330000
C  -0.4439670000  -0.7790140000  -2.0266870000
H  -0.8133070000  -0.3606590000  -2.9632870000
H  0.5991700000  -0.4866260000  -1.9140040000
H  -0.4993360000  -1.8665440000  -2.0915400000
C  -1.0825190000  1.2613710000  -0.7289900000
H  -0.0465980000  1.4754650000  -0.4720810000
H  -1.2992150000  1.7388390000  -1.6851720000
H  -1.7329710000  1.7157960000  0.0143610000
C  -1.3012340000  -2.3446770000  2.3503560000
H  -0.3101630000  -2.2000510000  2.7773130000
H  -1.9988570000  -2.5348550000  3.1666910000
H  -1.2747450000  -3.2255840000  1.7080820000
C  -1.6306480000  0.1360240000  2.4542310000
H  -2.1223260000  -0.0467070000  3.4104710000
H  -0.5807030000  0.3455550000  2.6628850000
H  -2.0779690000  1.0207250000  2.0069180000
C  2.1452800000  0.1040210000  1.4998210000
H  1.7943860000  0.1622850000  2.5290110000
H  1.0053490000  -0.4144120000  0.9630080000
C  2.2372490000  1.3954720000  0.8176110000
C  2.7136680000  1.5963910000  -0.4872650000
C  1.7263050000  2.4902220000  1.5325250000
C  2.7075750000  2.8661100000  -1.0331790000
H  3.0802300000  0.7700930000  -1.0762400000
C  1.7240080000  3.7564510000  0.9774860000
H  1.3489050000  2.3456980000  2.5382570000
C  2.2175060000  3.9465460000  -0.3066080000
H  3.0833370000  3.0159130000  -2.0372340000
H  1.3425210000  4.5948990000  1.5457640000
O  2.9936890000  -0.9251170000  1.4038190000
H  2.2166380000  4.9366070000  -0.7452480000
C  3.7943520000  -1.1444360000  0.2724360000
C  3.2840730000  -1.8803090000  -0.7807950000
C  5.0903280000  -0.6670500000  0.2869880000
C  4.1004300000  -2.1104250000  -1.8799310000
H  2.2722210000  -2.2601600000  -0.7332840000
C  5.8948110000  -0.9073770000  -0.8184120000
H  5.4556100000  -0.1166950000  1.1442820000
C  5.3999710000  -1.6204940000  -1.9024190000
H  3.7216920000  -2.6841020000  -2.7164190000
H  6.9129420000  -0.5397110000  -0.8279140000
H  6.0328220000  -1.8069930000  -2.7605640000
N  -5.0757950000  -0.5651910000  -0.2726060000
C  -5.7813880000  0.4316010000  -0.8864850000
C  -7.2236850000  0.1368450000  -1.2006400000
H  -7.5417810000  -0.8585390000  -0.8900000000
H  -7.8457700000  0.8826940000  -0.7052630000
H  -7.3768780000  0.2449100000  -2.2747090000
O  -5.2542260000  1.4955560000  -1.1518050000
H  -5.5085290000  -1.4604220000  -0.1123100000