43
charge=0, multiplicity=2, basis=def2-QZVPP, AUX_BASIS_CORR=rimp2-def2-QZVPPD, SCF_ALGORITHM=GDM, xc_grid=000099000590, mem_total=60000, num_basis=1762, num_pairs=900771, num_threads=16
C  2.0167970000  -0.4914170000  0.0023830000
C  3.5321500000  -0.3227390000  0.2180920000
C  3.8878010000  0.7685670000  -0.8122750000
C  2.6568590000  1.6736930000  -0.8725150000
C  1.4809300000  0.6939110000  -0.7803470000
C  1.3142590000  -1.5104240000  0.4265090000
C  4.3180490000  -1.6091470000  -0.0157140000
C  3.7841130000  0.1860400000  1.6446180000
H  4.8069490000  1.2972410000  -0.5485590000
H  4.0460910000  0.3007490000  -1.7895620000
H  2.6267080000  2.2832810000  -1.7772500000
H  2.6470090000  2.3595960000  -0.0215410000
H  1.1854260000  0.3515540000  -1.7768880000
H  0.5912970000  1.1227590000  -0.3214370000
H  1.5666470000  -2.4108540000  0.9654990000
Cl  -0.8161390000  -1.4955320000  0.0613250000
H  4.1188000000  -2.0134270000  -1.0101060000
H  4.0554660000  -2.3740770000  0.7185070000
H  5.3919230000  -1.4211250000  0.0703370000
H  4.8494180000  0.3830580000  1.7956310000
H  3.2353070000  1.1072520000  1.8490120000
H  3.4635240000  -0.5572520000  2.3770920000
C  -2.8417160000  -1.2767330000  -0.2995250000
C  -3.5100990000  -2.0385560000  0.8153180000
C  -3.0657530000  0.2204490000  -0.3033610000
C  -3.0336200000  -1.8985170000  -1.6585570000
H  -2.4597170000  -1.3697390000  -2.4205680000
H  -4.0937530000  -1.8515250000  -1.9374380000
H  -2.7299220000  -2.9458610000  -1.6611470000
H  -3.2694800000  -3.1006510000  0.7583310000
H  -3.2109180000  -1.6744740000  1.7975000000
H  -4.5993780000  -1.9329890000  0.7303310000
H  -2.4130670000  0.6646700000  -1.0591200000
H  -4.0964550000  0.3939600000  -0.6483330000
C  -2.8610580000  0.9360640000  1.0266480000
H  -3.6128330000  0.6123510000  1.7505570000
C  -2.9603150000  2.4616770000  0.8944610000
H  -1.8840660000  0.6732590000  1.4369230000
H  -3.9311440000  2.7367110000  0.4693200000
H  -2.9170780000  2.9178130000  1.8870790000
C  -1.9029650000  3.0395500000  0.0699430000
C  -1.0237150000  3.4958400000  -0.6022550000
H  -0.2426910000  3.9022220000  -1.1972360000