14
charge=0, multiplicity=2, basis=def2-QZVPP, AUX_BASIS_CORR=rimp2-def2-QZVPPD, SCF_ALGORITHM=GDM, xc_grid=000099000590, mem_total=3750, num_basis=582, num_pairs=160688, num_threads=1
C  -1.1757430000  -0.1243730000  0.0328600000
C  0.3016990000  1.4302820000  -0.0572300000
C  1.4811610000  0.5497480000  0.2080970000
C  1.1647160000  -0.8501860000  -0.3278270000
C  -0.2065220000  -1.2390120000  0.2141670000
N  -2.2610300000  0.2967360000  -0.0877250000
H  -0.0406380000  2.1256920000  0.6979530000
H  0.1184450000  1.7387780000  -1.0806580000
H  1.6807510000  0.4952710000  1.2818090000
H  2.3862170000  0.9432490000  -0.2681660000
H  1.9206670000  -1.5818360000  -0.0373900000
H  1.1321730000  -0.8268810000  -1.4207780000
H  -0.1460660000  -1.4419370000  1.2874420000
H  -0.6162070000  -2.1282480000  -0.2665400000