42
charge=0, multiplicity=1, basis=def2-QZVPP, mem_total=120000, AUX_BASIS_CORR=rimp2-def2-QZVPPD, SCF_ALGORITHM=GDM, xc_grid=000099000590, num_basis=1908, num_pairs=1163655, num_threads=32
C  -1.7688220000  -0.4560200000  0.0753400000
C  -1.7175780000  -1.8152210000  0.4165770000
C  -2.8580270000  -2.6038960000  0.2988830000
C  -4.0406130000  -2.1013010000  -0.2159220000
C  -4.0656980000  -0.7947850000  -0.6755150000
C  -2.9456850000  0.0048140000  -0.5306120000
H  -2.7957070000  -3.6466050000  0.5891310000
H  -4.9158920000  -2.7341630000  -0.2967640000
H  -4.9517100000  -0.3930890000  -1.1513440000
H  -2.9778380000  1.0056840000  -0.9344680000
C  -0.6567290000  0.5394800000  0.1760180000
C  0.6567290000  0.5394760000  -0.1760290000
C  1.7688230000  -0.4560210000  -0.0753270000
C  2.9456880000  0.0048300000  0.5306080000
C  1.7175780000  -1.8152310000  -0.4165260000
C  4.0657010000  -0.7947650000  0.6755300000
H  2.9778430000  1.0057120000  0.9344350000
C  2.8580270000  -2.6039040000  -0.2988130000
C  4.0406150000  -2.1012940000  0.2159740000
H  4.9517150000  -0.3930560000  1.1513450000
H  2.7957070000  -3.6466200000  -0.5890320000
H  4.9158940000  -2.7341540000  0.2968310000
C  0.4021600000  -2.4680590000  -0.6700200000
H  -0.1635100000  -1.9308970000  -1.4325040000
H  0.5420270000  -3.4867610000  -1.0326060000
C  1.1153560000  1.9718480000  -0.5024200000
C  -1.1153580000  1.9718600000  0.5023680000
N  -1.0580920000  2.6744450000  -0.8194680000
N  0.0459330000  2.6438270000  -1.3308470000
N  -0.0459360000  2.6438640000  1.3307770000
N  1.0580890000  2.6744690000  0.8193980000
C  -2.4203880000  2.2287490000  1.2289790000
H  -2.2994350000  3.1404620000  1.8126370000
H  -3.2501710000  2.3700440000  0.5435710000
H  -2.6608070000  1.4134930000  1.9098080000
C  2.4203860000  2.2287170000  -1.2290380000
H  2.6608170000  1.4134350000  -1.9098310000
H  2.2994270000  3.1404050000  -1.8127340000
H  3.2501650000  2.3700480000  -0.5436310000
C  -0.4021600000  -2.4680400000  0.6700900000
H  0.1635090000  -1.9308560000  1.4325590000
H  -0.5420270000  -3.4867330000  1.0327060000