35
charge=0, multiplicity=2, basis=def2-QZVPP, AUX_BASIS_CORR=rimp2-def2-QZVPPD, SCF_ALGORITHM=GDM, xc_grid=000099000590, mem_total=60000, num_basis=1401, num_pairs=691665, num_threads=16
C  0.3585040000  -0.7006760000  0.6252550000
C  1.3097110000  -1.4885280000  -0.2430460000
C  2.1191150000  -0.5867460000  -1.2100040000
H  0.7475130000  -2.2169220000  -0.8356560000
H  1.9999760000  -2.0489850000  0.3930580000
C  2.9705180000  0.4343200000  -0.5292240000
H  1.4295850000  -0.0955450000  -1.9019050000
H  2.7480690000  -1.2513560000  -1.8139880000
C  2.4733450000  1.8259230000  -0.3356580000
C  4.1427060000  -0.0188590000  0.2727300000
N  0.5547340000  -0.4458770000  1.8524910000
C  -0.9057730000  -0.2065710000  -0.0428180000
H  -0.6858730000  -0.0470530000  -1.1063000000
C  -1.4267420000  1.1052060000  0.5432950000
C  -1.9890750000  -1.2970080000  0.0403300000
H  4.9460240000  0.7241640000  0.2603450000
H  4.5484760000  -0.9643960000  -0.0963630000
H  3.8846790000  -0.1700240000  1.3329420000
H  3.2982600000  2.5450980000  -0.3170620000
H  1.9381740000  1.9368020000  0.6193690000
H  1.7806780000  2.1232310000  -1.1267830000
H  -1.6267600000  -2.2300840000  -0.4010630000
C  -3.2790340000  -0.8556370000  -0.6480870000
H  -2.1845830000  -1.5014440000  1.0983380000
H  -0.6589330000  1.8780190000  0.4561080000
H  -1.5987530000  0.9638930000  1.6131210000
C  -2.7146130000  1.5492220000  -0.1472220000
H  -2.5045620000  1.7801840000  -1.1990450000
H  -3.0802850000  2.4744810000  0.3060250000
C  -3.7897200000  0.4660990000  -0.0777260000
H  -4.6889030000  0.7863010000  -0.6111710000
H  -4.0809840000  0.3162890000  0.9684210000
H  -4.0401500000  -1.6340360000  -0.5460900000
H  -3.0932320000  -0.7385470000  -1.7226020000
H  1.4248060000  -0.8693930000  2.1759120000