14
charge=0, multiplicity=1, basis=def2-QZVPP, AUX_BASIS_CORR=rimp2-def2-QZVPPD, SCF_ALGORITHM=GDM, xc_grid=000099000590, mem_total=3750, num_basis=541, num_pairs=133816, num_threads=1
C  1.7713810000  0.1499230000  -0.2232230000
H  1.8140420000  0.1531740000  -1.3156570000
H  2.2339600000  1.0745230000  0.1300290000
H  2.3829410000  -0.6834130000  0.1306090000
C  -0.7558510000  -1.6090240000  -0.2232090000
H  -0.1864090000  -2.4719330000  0.1300240000
H  -1.7833240000  -1.7220010000  0.1306120000
H  -0.7743560000  -1.6475540000  -1.3156440000
C  -1.0155320000  1.4590880000  -0.2232450000
H  -1.0396870000  1.4943900000  -1.3156800000
H  -2.0475460000  1.3973930000  0.1300090000
H  -0.5996220000  2.4053930000  0.1305580000
Si  0.0000000000  0.0000050000  0.3795570000
H  0.0000080000  0.0000250000  1.8694080000