4
charge=0, multiplicity=1, basis=def2-QZVPP, AUX_BASIS_CORR=rimp2-def2-QZVPPD, SCF_ALGORITHM=GDM, xc_grid=000099000590, mem_total=3750, num_basis=201, num_pairs=20533, num_threads=1
H  1.5899260000  0.7582480000  0.0000810000
N  1.1140380000  -0.1415550000  -0.0000480000
N  -0.1096180000  0.0235350000  0.0000060000
N  -1.2315520000  0.0096990000  0.0000300000