64
charge=1, multiplicity=1, basis=def2-QZVPP, mem_total=240000, AUX_BASIS_CORR=rimp2-def2-QZVPPD, SCF_ALGORITHM=GDM, xc_grid=000099000590, num_basis=2811, num_pairs=2012160, num_threads=64
N  0.2531490000  -1.2807430000  -0.7404200000
C  1.6404740000  -1.0320520000  -0.8157910000
C  2.2084590000  0.2090760000  -1.1046370000
C  3.5813550000  0.3641160000  -1.1217700000
C  4.4260700000  -0.7049450000  -0.8294930000
C  3.8662160000  -1.9428140000  -0.5207250000
C  2.4885920000  -2.0953960000  -0.5203740000
O  5.7488090000  -0.4449770000  -0.8641390000
C  6.6589670000  -1.5078660000  -0.6262750000
C  -0.8159860000  -0.6053330000  -1.2613710000
C  -2.0935480000  -1.3988380000  -1.2626060000
C  -2.0876700000  -2.7907620000  -1.2943010000
C  -3.2845380000  -3.4955880000  -1.3099160000
C  -4.4930150000  -2.8171730000  -1.2915730000
C  -4.5039470000  -1.4271830000  -1.2669470000
C  -3.3136360000  -0.7210290000  -1.2558610000
C  -0.6017880000  0.2988340000  -2.4603670000
O  -2.5643890000  2.7431020000  -0.7201210000
C  -1.5509360000  3.1584390000  -0.2098720000
O  -1.1482500000  4.4237230000  -0.2885550000
C  -2.0077440000  5.3157170000  -1.0238120000
C  -0.6506160000  2.2691930000  0.5574870000
C  -1.1959290000  0.9530430000  0.8203960000
C  -0.4509350000  0.0790520000  1.6954530000
C  0.8299700000  0.3969830000  2.0360320000
N  1.3225990000  1.6028080000  1.6238140000
C  0.6255700000  2.5623460000  0.9410920000
C  1.7839690000  -0.4416140000  2.8172100000
C  -1.0641250000  -1.2150180000  2.0908740000
O  -2.3819130000  -1.1086480000  2.2039980000
C  -3.1055980000  -2.3227600000  2.4728420000
C  1.3727550000  3.8373440000  0.7063110000
O  -0.4537160000  -2.2477550000  2.2423070000
H  6.5314110000  -2.3062160000  -1.3619530000
H  -2.7601440000  -2.7661010000  3.4048840000
H  -5.4447380000  -0.8911650000  -1.2580010000
H  0.0225600000  -2.0630390000  -0.1423250000
H  6.5403340000  -1.9110790000  0.3832500000
H  7.6516950000  -1.0782100000  -0.7282880000
H  -3.2676240000  -4.5776060000  -1.3498500000
H  -5.4253390000  -3.3677360000  -1.3061510000
H  -2.9623630000  -3.0237450000  1.6520680000
H  -4.1470370000  -2.0260310000  2.5461890000
H  -0.1700310000  1.2624310000  -2.1932410000
H  -1.5571380000  0.4889960000  -2.9416590000
H  0.0649480000  -0.1884280000  -3.1747990000
H  2.2772400000  1.8168190000  1.8753700000
H  -1.1343040000  0.3060600000  -0.3455520000
H  -2.2777680000  0.8932410000  0.8785380000
H  2.4182470000  0.1839730000  3.4478260000
H  2.4221420000  -0.9938230000  2.1212890000
H  1.2670880000  -1.1719170000  3.4307950000
H  2.4223040000  3.7257190000  0.9809990000
H  0.9411530000  4.6449950000  1.2979040000
H  1.3118660000  4.1433320000  -0.3356840000
H  -1.5215650000  6.2855680000  -0.9807320000
H  -2.9901380000  5.3542390000  -0.5565580000
H  -2.1074120000  4.9761150000  -2.0534210000
H  -1.1542890000  -3.3376690000  -1.3448480000
H  -3.3309060000  0.3635040000  -1.2329050000
H  1.5898510000  1.0665650000  -1.3151890000
H  2.0658210000  -3.0661620000  -0.2871920000
H  4.4880590000  -2.7959220000  -0.2908460000
H  4.0271880000  1.3206400000  -1.3636260000