11
charge=0, multiplicity=1, basis=def2-QZVPP, AUX_BASIS_CORR=rimp2-def2-QZVPPD, SCF_ALGORITHM=GDM, xc_grid=000099000590, mem_total=3750, num_basis=465, num_pairs=105715, num_threads=1
C  -0.9958020000  -0.6402390000  0.0908760000
C  1.1925410000  -0.1215140000  0.0117520000
C  0.6159140000  1.0708830000  0.0536220000
C  -0.8773000000  0.8843900000  -0.0773300000
H  -1.3222940000  -0.9072410000  1.0993310000
H  -1.2360550000  1.2236440000  -1.0546520000
H  -1.4496570000  1.4175880000  0.6838900000
H  -1.6478590000  -1.1216940000  -0.6355280000
O  0.3344760000  -1.1751570000  -0.0876280000
H  2.2386160000  -0.3898010000  0.0274650000
H  1.1293170000  2.0176360000  0.1070010000