16
charge=0, multiplicity=1, basis=def2-QZVPP, AUX_BASIS_CORR=rimp2-def2-QZVPPD, SCF_ALGORITHM=GDM, xc_grid=000099000590, mem_total=7500, num_basis=642, num_pairs=191606, num_threads=2
O  1.9527600000  0.0926090000  -0.1356730000
H  2.3975630000  -0.7409080000  -0.3307790000
O  0.7333960000  -0.0723710000  -0.8737970000
C  -0.3874360000  -0.0000280000  0.0339310000
C  -1.5683950000  -0.1438690000  -0.9153180000
C  -0.3961990000  1.3532790000  0.7318890000
C  -0.3336560000  -1.1501640000  1.0310090000
H  -0.2892520000  -2.1075960000  0.5073380000
H  -1.2257270000  -1.1450030000  1.6604630000
H  0.5382550000  -1.0602790000  1.6792070000
H  -0.4174270000  2.1581630000  -0.0045950000
H  0.4934160000  1.4725490000  1.3497820000
H  -1.2769660000  1.4418830000  1.3714360000
H  -1.5611710000  0.6554120000  -1.6575230000
H  -2.5022380000  -0.0889630000  -0.3533090000
H  -1.5315780000  -1.1024640000  -1.4353300000