45
charge=1, multiplicity=1, basis=def2-QZVPP, mem_total=120000, AUX_BASIS_CORR=rimp2-def2-QZVPPD, SCF_ALGORITHM=GDM, xc_grid=000099000590, num_basis=1890, num_pairs=1192687, num_threads=32
C  -0.3568230000  0.3018470000  0.4985040000
C  0.0902600000  0.5392910000  -0.9771650000
C  -0.5525520000  -0.6463140000  -1.7516990000
N  -1.1983260000  -1.5194480000  -0.7382560000
H  0.1580650000  -1.2388470000  -2.3192700000
H  -1.3305780000  -0.2824740000  -2.4170510000
C  -1.5858020000  -0.6169300000  0.4478930000
C  -2.8887530000  0.0799190000  0.0037650000
N  -3.7966670000  -0.8980580000  -0.5974760000
H  -2.6394690000  0.8450940000  -0.7306950000
H  -3.3080790000  0.5799320000  0.8785560000
N  -1.8118540000  -1.3378310000  1.6439050000
C  -0.7618250000  -2.1285580000  2.2744010000
N  -0.5272080000  1.7740860000  -1.4796840000
C  -0.2687720000  2.1088950000  -2.8804640000
H  -0.6643240000  1.3406620000  -3.5475340000
H  0.7899190000  2.2552610000  -3.1219230000
H  0.0057890000  -1.4835870000  2.7039270000
H  -4.3330790000  -0.4932680000  -1.3542110000
H  -4.4644920000  -1.2772410000  0.0627810000
C  -0.6106290000  1.5334040000  1.3715840000
H  0.4216840000  -0.2836300000  0.9834530000
C  0.6517290000  2.3291170000  1.5628680000
H  -0.9798060000  1.1961900000  2.3404200000
H  -1.3512890000  2.1890580000  0.9181790000
O  1.3775650000  1.8947400000  2.6030510000
O  1.0110540000  3.2236920000  0.8434450000
C  1.6357100000  0.5857000000  -1.1543700000
C  2.5694250000  -0.2653500000  -0.2827220000
H  1.9409060000  1.6192900000  -0.9816760000
H  1.8628860000  0.3834620000  -2.2036010000
C  2.4392340000  -1.7594120000  -0.3811150000
H  2.4504580000  -0.0213040000  0.7783410000
H  3.5994180000  -0.0048550000  -0.5254490000
O  3.6129240000  -2.3747670000  -0.3588650000
O  1.3939520000  -2.3756120000  -0.4382100000
H  3.4707590000  -3.3338860000  -0.3804190000
H  2.1650280000  2.4549110000  2.6825010000
H  -0.2021070000  2.5514550000  -0.9125310000
H  -0.2740290000  -2.8498420000  1.6081830000
H  -1.2074810000  -2.6839670000  3.0975550000
H  -0.7954960000  3.0339000000  -3.1118010000
H  -2.7153990000  -1.7858150000  1.6771740000
H  -0.5118080000  -2.2183290000  -0.4391050000
H  -2.0802640000  -1.9374830000  -1.0694760000