31
charge=0, multiplicity=2, basis=def2-QZVPP, mem_total=30000, AUX_BASIS_CORR=rimp2-def2-QZVPPD, SCF_ALGORITHM=GDM, xc_grid=000099000590, num_basis=1362, num_pairs=588439, num_threads=8
C  -2.4132440000  0.4090850000  -0.0159810000
C  -1.4240830000  1.4564500000  0.0424610000
C  -0.1669830000  1.4143850000  -0.5385400000
H  -1.6906030000  2.3412210000  0.6144550000
C  0.8668930000  2.4673550000  -0.3643790000
H  0.0748970000  0.6245700000  -1.2372880000
C  1.3374350000  1.4500990000  0.6003890000
H  0.5041580000  3.3907080000  0.0796180000
H  1.5056330000  2.6610120000  -1.2209820000
C  2.3327880000  0.4394870000  0.3337060000
H  0.9793980000  1.5382840000  1.6168310000
C  -2.1483880000  -0.8643410000  -0.5502420000
C  -3.7049550000  0.6495890000  0.4825190000
C  -4.6863910000  -0.3241030000  0.4359120000
C  -4.4085300000  -1.5735650000  -0.1067480000
C  -3.1325360000  -1.8349330000  -0.5955750000
C  2.9548240000  0.2931470000  -0.9169900000
C  2.6969100000  -0.4557930000  1.3538040000
C  3.6393170000  -1.4433370000  1.1363040000
C  4.2444530000  -1.5753060000  -0.1095550000
C  3.8942780000  -0.7013140000  -1.1315310000
H  2.7034370000  0.9633160000  -1.7298890000
H  2.2256840000  -0.3632090000  2.3258270000
H  3.9043120000  -2.1183950000  1.9414130000
H  4.9809560000  -2.3504110000  -0.2810870000
H  4.3608980000  -0.7937230000  -2.1052250000
H  -2.9021070000  -2.8097890000  -1.0090870000
H  -1.1567730000  -1.0999600000  -0.9154670000
H  -3.9307660000  1.6223400000  0.9054230000
H  -5.6747610000  -0.1096760000  0.8250190000
H  -5.1750990000  -2.3377210000  -0.1428760000