37
charge=0, multiplicity=1, basis=def2-QZVPP, AUX_BASIS_CORR=rimp2-def2-QZVPPD, SCF_ALGORITHM=GDM, xc_grid=000099000590, mem_total=60000, num_basis=1515, num_pairs=801326, num_threads=16
C  -1.4403350000  -1.2349580000  0.0541800000
C  -1.0711260000  1.2977260000  -0.1458230000
C  0.3661440000  1.0089820000  -0.5898690000
C  0.9202790000  -0.2863840000  -0.0099850000
C  0.0114870000  -1.4413550000  -0.3932560000
H  0.3923150000  0.9371460000  -1.6823810000
H  1.0029100000  1.8454610000  -0.2952090000
H  0.9911680000  -0.1994550000  1.0740140000
H  0.0244570000  -1.5531990000  -1.4839620000
H  0.3811970000  -2.3749130000  0.0384490000
N  -1.8729870000  0.0883710000  -0.4514540000
O  -3.2091240000  0.3147020000  -0.0008560000
C  -2.3106840000  -2.2824110000  -0.6452990000
H  -1.9330780000  -3.2854870000  -0.4351290000
H  -3.3410710000  -2.2296380000  -0.2932750000
H  -2.2987890000  -2.1235460000  -1.7253610000
C  -1.5856260000  -1.4233460000  1.5724590000
H  -2.5696880000  -1.0870940000  1.8978340000
H  -1.4905700000  -2.4836600000  1.8167330000
H  -0.8319110000  -0.8870470000  2.1447980000
C  -1.6276330000  2.4261930000  -1.0175680000
H  -2.6211720000  2.7250780000  -0.6818460000
H  -0.9749150000  3.2996490000  -0.9593620000
H  -1.6883840000  2.1048070000  -2.0592250000
C  -1.1205070000  1.7513500000  1.3215620000
H  -0.7345250000  2.7698650000  1.3966740000
H  -2.1494080000  1.7494290000  1.6808040000
H  -0.5191820000  1.1315450000  1.9829920000
H  -3.7239310000  0.3396580000  -0.8118790000
N  2.2750740000  -0.5436160000  -0.4720040000
C  3.3625740000  -0.0130350000  0.1464990000
C  4.6995950000  -0.3265860000  -0.4839680000
H  5.1782410000  0.6110160000  -0.7686770000
H  5.3319810000  -0.8047760000  0.2643120000
H  4.6281900000  -0.9731850000  -1.3594430000
O  3.2723300000  0.6678630000  1.1517980000
H  2.4008920000  -1.0425030000  -1.3377820000