45
charge=1, multiplicity=1, basis=def2-QZVPP, mem_total=120000, AUX_BASIS_CORR=rimp2-def2-QZVPPD, SCF_ALGORITHM=GDM, xc_grid=000099000590, num_basis=1890, num_pairs=1172534, num_threads=32
C  0.1112350000  -0.1333470000  -0.1211670000
C  0.3730480000  1.4027970000  -0.2670360000
C  1.0935270000  1.9243800000  0.9854170000
N  2.4300480000  1.3542100000  1.1096550000
H  0.5227630000  1.6384500000  1.8701630000
H  1.0923130000  3.0196020000  0.9601260000
C  1.2859400000  -0.9191200000  0.3899820000
C  2.4832220000  -1.2078480000  -0.4814570000
N  3.5607000000  -1.7660290000  0.3130460000
H  2.7205060000  -0.2973470000  -1.0325750000
H  2.1583650000  -1.9519440000  -1.2157560000
N  1.2727230000  -1.5171610000  1.5253100000
C  0.2256580000  -1.5270960000  2.5416670000
N  1.2414750000  1.6172270000  -1.4310270000
C  1.6892980000  2.9827010000  -1.7070900000
H  2.3448850000  3.3467890000  -0.9144670000
H  0.8817500000  3.7113320000  -1.8362070000
H  -0.6910330000  -1.9291550000  2.1140880000
H  4.1935000000  -1.0471060000  0.6420490000
H  4.0932660000  -2.4656770000  -0.1853520000
C  -0.4099270000  -0.7727990000  -1.4178160000
H  -0.6775360000  -0.2439990000  0.6188460000
C  -1.0359440000  -2.1206490000  -1.1703390000
H  0.3620550000  -0.8836580000  -2.1804070000
H  -1.1987560000  -0.1544450000  -1.8451300000
O  -1.4395550000  -2.6869610000  -2.3050390000
O  -1.1610750000  -2.6322290000  -0.0870010000
C  -0.9721720000  2.1593540000  -0.4206640000
C  -2.0203400000  1.9961890000  0.6803440000
H  -1.4307350000  1.8950010000  -1.3753540000
H  -0.7263390000  3.2191490000  -0.4909280000
C  -2.9245050000  0.8024560000  0.5085080000
H  -2.6887560000  2.8627880000  0.6714820000
H  -1.5982850000  1.9777690000  1.6858970000
O  -3.5384500000  0.4751650000  1.6520060000
O  -3.1058630000  0.2093490000  -0.5225970000
H  -4.1580960000  -0.2473560000  1.4694890000
H  -1.8709800000  -3.5298440000  -2.0991560000
H  0.7833400000  1.2614250000  -2.2607880000
H  0.0579360000  -0.5234850000  2.9310270000
H  0.5555720000  -2.1664450000  3.3563320000
H  2.2755270000  2.9677170000  -2.6253550000
H  2.8348500000  1.5768490000  2.0116700000
H  3.0452060000  1.7284880000  0.3964350000
H  2.1493560000  -2.0273180000  1.6939340000