37
charge=0, multiplicity=1, basis=def2-QZVPP, AUX_BASIS_CORR=rimp2-def2-QZVPPD, SCF_ALGORITHM=GDM, xc_grid=000099000590, mem_total=60000, num_basis=1677, num_pairs=946618, num_threads=16
C  -0.0505670000  -0.4907250000  -0.0433780000
C  -1.2756700000  0.4015810000  -0.1054440000
C  -2.6321000000  -0.1752770000  0.2047780000
C  -2.7347870000  -1.6516590000  -0.2271440000
C  -1.5861070000  -2.4259870000  0.4307310000
C  -0.4113220000  -1.9492970000  -0.4293340000
C  -1.1315770000  1.7040690000  -0.4238410000
H  -3.4083220000  0.4304440000  -0.2647410000
H  -2.7860930000  -0.1001560000  1.2874390000
H  -3.7258010000  -2.0365510000  0.0143780000
C  -2.3597220000  -1.7677980000  -1.6952540000
H  -1.4662690000  -2.2054080000  1.4927540000
H  -1.7300010000  -3.5006320000  0.3097640000
C  -1.0462060000  -1.9316790000  -1.8080660000
H  0.4817240000  -2.5689030000  -0.3697190000
H  -0.4751550000  -1.9594040000  -2.7269030000
H  -3.0606380000  -1.6386010000  -2.5100570000
C  0.1542130000  2.2642060000  -0.7098390000
C  -2.2454350000  2.6002780000  -0.4779350000
N  1.1943710000  2.6904330000  -0.9441970000
N  -3.1457280000  3.3122840000  -0.5156580000
C  -0.5164540000  0.5430060000  3.4385620000
C  0.0589640000  0.0630370000  2.3782280000
H  -0.4519290000  1.5987500000  3.6789150000
H  -1.0741470000  -0.0940090000  4.1166170000
C  0.6401050000  -0.4073840000  1.3119660000
C  2.0660830000  -0.8903000000  1.3963610000
O  2.9603340000  0.0206210000  0.7363100000
H  2.3910100000  -0.9123930000  2.4330370000
H  2.1788110000  -1.8782810000  0.9506580000
C  3.2823100000  -0.2286860000  -0.5476340000
C  4.1898480000  0.8288130000  -1.0888910000
O  2.8553260000  -1.1750820000  -1.1591160000
H  3.6068760000  1.7435560000  -1.2177060000
H  4.9929740000  1.0399150000  -0.3834670000
H  4.5908540000  0.5090130000  -2.0472130000
H  0.6608650000  -0.1278500000  -0.7855300000