35
charge=1, multiplicity=1, basis=def2-QZVPP, mem_total=60000, AUX_BASIS_CORR=rimp2-def2-QZVPPD, SCF_ALGORITHM=GDM, xc_grid=000099000590, num_basis=1482, num_pairs=742125, num_threads=16
C  0.4248060000  2.6458120000  -0.5953820000
C  -0.5953800000  2.9296400000  0.4686400000
C  -1.4900080000  1.7283340000  0.7957700000
C  -2.3860980000  1.2899910000  -0.3615030000
C  -3.1777360000  0.0222500000  -0.0654750000
C  -2.3926390000  -1.2657750000  -0.0768950000
H  -2.1219200000  1.9767480000  1.6537570000
H  -1.2257100000  3.7693110000  0.1568830000
H  -0.0842710000  3.2451510000  1.3808740000
H  -1.8042530000  1.1500240000  -1.2767690000
H  -3.0997340000  2.0865400000  -0.5835290000
H  -3.9721260000  -0.1263050000  -0.8060600000
H  -3.6806650000  0.0821530000  0.9049190000
H  -0.8474080000  0.9023630000  1.1168130000
C  -3.0345390000  -2.5450040000  0.3682830000
H  -2.3868080000  -3.4049470000  0.2125690000
H  -3.9636610000  -2.6830420000  -0.1883220000
H  -3.2916760000  -2.4693110000  1.4269770000
C  1.7285040000  2.5527670000  -0.3770710000
N  -1.1989910000  -1.2741330000  -0.4621670000
N  -0.1529470000  -1.2764890000  -1.0525840000
C  1.0666560000  -1.1160520000  -0.3870820000
C  1.1845860000  -1.0307610000  1.0043680000
C  2.1792220000  -1.0406180000  -1.2233660000
C  2.4361160000  -0.8538110000  1.5503770000
H  0.3120760000  -1.1124120000  1.6403140000
C  3.4295600000  -0.8574780000  -0.6608780000
H  2.0406140000  -1.1184450000  -2.2939610000
C  3.5540920000  -0.7624660000  0.7184760000
H  2.5547610000  -0.7888420000  2.6240140000
H  4.3047920000  -0.7916150000  -1.2934390000
H  4.5335610000  -0.6224640000  1.1590220000
H  0.0574020000  2.5242970000  -1.6118950000
H  2.1488330000  2.6949040000  0.6134360000
H  2.4269110000  2.3592660000  -1.1819150000