21
charge=0, multiplicity=1, basis=def2-QZVPP, AUX_BASIS_CORR=rimp2-def2-QZVPPD, SCF_ALGORITHM=GDM, xc_grid=000099000590, mem_total=15000, num_basis=927, num_pairs=318630, num_threads=4
C  3.7174160000  0.5395610000  0.0000680000
C  2.5384420000  0.0115080000  0.0000420000
C  3.6788780000  -0.9631770000  0.0000660000
H  4.3552420000  1.4044380000  0.0000860000
C  1.1007600000  0.1061220000  0.0000110000
C  0.3206570000  -1.0440240000  0.0000630000
C  0.4547490000  1.3500650000  -0.0000690000
C  -1.0674030000  -0.9760950000  0.0000400000
H  0.8101370000  -2.0104670000  0.0001210000
C  -0.9187950000  1.4318770000  -0.0000950000
H  1.0493400000  2.2557270000  -0.0001130000
C  -1.6904940000  0.2665620000  -0.0000390000
H  -1.6433410000  -1.8903530000  0.0000820000
H  -1.4285380000  2.3868110000  -0.0001580000
O  -3.0338360000  0.4499440000  -0.0000690000
C  -3.8686000000  -0.6905160000  -0.0000190000
H  -4.8893810000  -0.3156460000  -0.0000500000
H  -3.7069880000  -1.3013530000  -0.8932330000
H  -3.7070090000  -1.3012600000  0.8932640000
H  3.9187740000  -1.5093700000  0.9132020000
H  3.9187990000  -1.5093750000  -0.9130600000