31
charge=0, multiplicity=1, basis=def2-QZVPP, mem_total=30000, AUX_BASIS_CORR=rimp2-def2-QZVPPD, SCF_ALGORITHM=GDM, xc_grid=000099000590, num_basis=1308, num_pairs=571353, num_threads=8
C  3.9925390000  1.1600780000  0.4247170000
C  2.6489030000  1.2857960000  0.1089670000
C  1.8676720000  0.1701460000  -0.2111980000
C  2.5000980000  -1.0786050000  -0.2279160000
C  3.8407140000  -1.2066710000  0.0979870000
C  4.5973360000  -0.0894990000  0.4285430000
H  4.5702230000  2.0433620000  0.6712970000
H  2.1856150000  2.2664650000  0.1176260000
H  1.9431530000  -1.9598680000  -0.5224870000
H  4.3038480000  -2.1864520000  0.0768330000
H  5.6473090000  -0.1910440000  0.6740410000
C  0.4463160000  0.3536970000  -0.5129780000
C  -0.4725810000  -0.6223640000  -0.4409680000
C  -2.4100760000  0.6965820000  -1.1614660000
C  -2.7224890000  -1.4423590000  -0.0705320000
C  -2.9076680000  1.4587230000  0.0675560000
H  -3.2566870000  0.4755690000  -1.8210880000
H  -1.6971930000  1.2787700000  -1.7439900000
C  -3.2509850000  -0.7719320000  1.1986390000
H  -3.5577430000  -1.6821710000  -0.7380850000
H  -2.2115380000  -2.3786500000  0.1606990000
C  -3.8753810000  0.5857800000  0.8701270000
H  -3.3935250000  2.3880530000  -0.2416340000
H  -2.0512920000  1.7316670000  0.6915420000
H  -3.9810260000  -1.4236480000  1.6866200000
H  -2.4194290000  -0.6355880000  1.8980820000
H  -4.1794780000  1.0962450000  1.7869500000
H  -4.7876450000  0.4280080000  0.2818480000
N  -1.8026290000  -0.5718960000  -0.7912450000
H  -0.1721260000  -1.6049500000  -0.0892390000
H  0.1495390000  1.3612650000  -0.7791600000