36
charge=1, multiplicity=1, basis=def2-QZVPP, AUX_BASIS_CORR=rimp2-def2-QZVPPD, SCF_ALGORITHM=GDM, xc_grid=000099000590, mem_total=60000, num_basis=1485, num_pairs=778362, num_threads=16
C  1.2038250000  1.3506010000  0.0411340000
C  1.2038170000  -1.3506030000  0.0411410000
C  -0.3218710000  -1.2485340000  0.1116610000
C  -0.8480650000  0.0000050000  0.8188960000
C  -0.3218630000  1.2485430000  0.1116620000
H  -0.7356040000  -1.2682780000  -0.8969360000
H  -0.6726130000  -2.1455630000  0.6252950000
H  -0.5172490000  0.0000010000  1.8595110000
H  -0.7356010000  1.2682900000  -0.8969340000
H  -0.6725950000  2.1455750000  0.6252960000
N  1.7704370000  -0.0000040000  -0.4009080000
O  2.7237430000  -0.0000090000  -1.0929260000
C  1.6368470000  2.3839370000  -0.9893840000
H  1.1503600000  3.3245570000  -0.7308420000
H  2.7134890000  2.5441360000  -0.9894510000
H  1.3164540000  2.1052720000  -1.9939690000
C  1.8518370000  1.6569350000  1.4033090000
H  2.9376080000  1.5648420000  1.3586270000
H  1.6138660000  2.6958280000  1.6328780000
H  1.4708570000  1.0399880000  2.2123760000
C  1.6368360000  -2.3839470000  -0.9893690000
H  2.7134770000  -2.5441510000  -0.9894320000
H  1.1503440000  -3.3245640000  -0.7308220000
H  1.3164470000  -2.1052870000  -1.9939560000
C  1.8518230000  -1.6569320000  1.4033200000
H  1.6138430000  -2.6958220000  1.6328960000
H  2.9375950000  -1.5648480000  1.3586400000
H  1.4708460000  -1.0399770000  2.2123820000
N  -2.3011200000  0.0000010000  0.8722240000
C  -3.0929670000  0.0000120000  -0.2453640000
C  -4.5777500000  0.0000030000  -0.0062910000
H  -5.0063610000  0.8782140000  -0.4899130000
H  -5.0062290000  -0.8786670000  -0.4892060000
H  -4.8521870000  0.0003910000  1.0483380000
O  -2.6090920000  -0.0000090000  -1.3626090000
H  -2.7439920000  0.0001170000  1.7759910000