27
charge=0, multiplicity=2, basis=def2-QZVPP, AUX_BASIS_CORR=rimp2-def2-QZVPPD, SCF_ALGORITHM=GDM, xc_grid=000099000590, mem_total=30000, num_basis=1147, num_pairs=497644, num_threads=8
C  -0.4972450000  0.6958600000  1.2172130000
C  -1.7560260000  1.2102260000  0.5749300000
O  -2.1351610000  0.1687110000  -0.3333860000
C  -1.7284080000  -1.0870900000  0.1901540000
C  -0.5696660000  -0.7674560000  1.1348460000
H  -0.0750680000  1.1650510000  2.0986360000
C  -1.6846170000  2.5222890000  -0.1726360000
H  -2.5276080000  1.2867650000  1.3598620000
H  -0.9598760000  2.4612860000  -0.9844040000
H  -1.3930360000  3.3288330000  0.5026900000
H  -2.6620430000  2.7591830000  -0.5935420000
C  -1.3424630000  -2.0033410000  -0.9524890000
H  -2.5362810000  -1.5464170000  0.7782370000
O  -0.2978960000  -1.4553250000  -1.7252200000
H  -2.2274730000  -2.2056380000  -1.5657780000
H  -0.9783520000  -2.9453080000  -0.5408490000
H  -0.5637740000  -0.5736120000  -2.0098450000
O  0.1157770000  -1.5851280000  1.7016660000
C  3.2563040000  -0.4569430000  0.7831830000
C  2.5742330000  -0.2280780000  -0.5544010000
H  3.9337980000  0.3628420000  1.0275440000
H  3.8338340000  -1.3847090000  0.7512580000
H  2.5229540000  -0.5575150000  1.5842780000
S  1.6809540000  1.3564910000  -0.6864470000
H  3.3053430000  -0.1798530000  -1.3653710000
H  1.8758110000  -1.0261380000  -0.8043170000
H  0.5820750000  1.0124940000  0.2754870000