35
charge=0, multiplicity=1, basis=def2-QZVPP, mem_total=60000, AUX_BASIS_CORR=rimp2-def2-QZVPPD, SCF_ALGORITHM=GDM, xc_grid=000099000590, num_basis=1482, num_pairs=783730, num_threads=16
C  0.1811320000  1.3847680000  1.3570900000
N  -0.2910050000  0.0543110000  1.0205100000
C  0.4942500000  -1.0974490000  1.4236070000
C  1.5011330000  -1.6238100000  0.3864660000
C  2.8878050000  -1.0231680000  0.4696670000
C  2.4298230000  0.8553240000  -0.5858260000
C  1.1648480000  1.5464530000  -0.9962450000
C  0.4729680000  2.2849800000  0.1453720000
C  3.7623280000  -0.9184100000  -0.6458960000
C  3.2320640000  0.0627710000  -1.4449750000
H  2.9368380000  1.2811260000  0.2704610000
H  3.3305150000  -1.2040060000  1.4574820000
C  -1.5114310000  -0.1264880000  0.3920880000
C  -1.8670940000  -1.3625890000  -0.1753240000
C  -3.0957690000  -1.5379410000  -0.7903730000
C  -4.0113310000  -0.4989480000  -0.8755230000
C  -3.6692760000  0.7273890000  -0.3240430000
C  -2.4464480000  0.9177560000  0.2979280000
H  -0.5229730000  1.8936700000  2.0277390000
H  1.0990690000  1.2497600000  1.9271150000
H  1.0281110000  -0.8379850000  2.3422870000
H  -0.1964810000  -1.8976000000  1.6969480000
H  1.0957710000  -1.5161430000  -0.6201240000
H  1.6133620000  -2.7034860000  0.5645210000
H  1.4055620000  2.2616670000  -1.7944860000
H  0.4718870000  0.8267540000  -1.4403460000
H  1.0975550000  3.1155630000  0.4904670000
H  -0.4493620000  2.7279610000  -0.2328380000
H  4.7180500000  -1.4250000000  -0.7471140000
H  3.3311230000  0.2039940000  -2.5177710000
H  -1.1752970000  -2.1923460000  -0.1527540000
H  -3.3331660000  -2.5054480000  -1.2176790000
H  -4.9675730000  -0.6408380000  -1.3623320000
H  -4.3673950000  1.5554210000  -0.3700800000
H  -2.2285740000  1.8829310000  0.7308560000