17
charge=0, multiplicity=2, basis=def2-QZVPP, AUX_BASIS_CORR=rimp2-def2-QZVPPD, SCF_ALGORITHM=GDM, xc_grid=000099000590, mem_total=7500, num_basis=726, num_pairs=223815, num_threads=2
C  2.8932540000  0.0000000000  0.0099510000
C  1.4931160000  0.0000000000  0.0033390000
C  0.7500630000  -1.2080820000  -0.0023450000
C  0.7500640000  1.2080820000  -0.0023450000
H  1.2852520000  -2.1508770000  -0.0035600000
C  -0.6271000000  -1.1990010000  -0.0108010000
C  -0.6271000000  1.1990020000  -0.0108010000
C  -1.3487270000  0.0000000000  -0.0121480000
H  1.2852530000  2.1508770000  -0.0035600000
H  -1.1662490000  -2.1403240000  -0.0183370000
H  -1.1662480000  2.1403250000  -0.0183370000
C  -2.8505240000  0.0000000000  0.0144360000
H  -3.2569070000  -0.8837610000  -0.4803000000
H  -3.2238660000  -0.0000160000  1.0433550000
H  -3.2569070000  0.8837750000  -0.4802740000
H  3.4506980000  0.9274040000  0.0126460000
H  3.4506980000  -0.9274050000  0.0126460000