28
charge=0, multiplicity=1, basis=def2-QZVPP, mem_total=30000, AUX_BASIS_CORR=rimp2-def2-QZVPPD, SCF_ALGORITHM=GDM, xc_grid=000099000590, num_basis=1164, num_pairs=543326, num_threads=8
C  2.8905040000  0.2901010000  -0.2374770000
C  2.0163320000  1.0991580000  0.7452810000
C  0.5891010000  0.8248010000  0.3851440000
C  0.1704350000  -0.5932420000  0.2663210000
C  0.9860000000  -1.3355430000  -0.7570880000
C  2.4654940000  -1.1798340000  -0.3631400000
H  2.2250120000  0.7698690000  1.7690260000
H  2.2581400000  2.1626550000  0.6776140000
H  2.8198970000  0.7631800000  -1.2230010000
H  3.9392690000  0.3458930000  0.0664640000
H  0.7138900000  -2.3919350000  -0.8023450000
H  0.8443020000  -0.9115190000  -1.7615230000
H  2.6269860000  -1.6880150000  0.5936020000
H  3.1029250000  -1.6776410000  -1.0991170000
C  -2.6018830000  0.2596450000  -0.6652090000
C  -1.4663020000  1.2358480000  -1.0910610000
C  -1.0724360000  -0.8571610000  0.6948790000
C  -2.1684250000  -1.1825730000  -0.2522970000
H  -3.2904240000  0.1892450000  -1.5123480000
H  -1.9705850000  2.1533350000  -1.4034120000
H  -1.0221360000  0.8280710000  -2.0095740000
H  -3.0135630000  -1.7209900000  0.1811900000
H  -1.7889480000  -1.7334710000  -1.1134940000
H  -3.1595310000  0.6939420000  0.1647940000
O  -1.5843630000  -0.2513370000  1.8103040000
H  -0.8683010000  0.1934180000  2.2774850000
C  -0.2647570000  1.6589210000  -0.2241550000
H  -0.0064200000  2.7139460000  -0.2949780000