28
charge=0, multiplicity=2, basis=def2-QZVPP, AUX_BASIS_CORR=rimp2-def2-QZVPPD, SCF_ALGORITHM=GDM, xc_grid=000099000590, mem_total=30000, num_basis=1150, num_pairs=509117, num_threads=8
P  0.0008840000  -0.0469200000  -0.4711340000
O  -0.0335470000  -0.3382880000  -1.9248590000
N  -1.1666170000  -0.9969440000  0.3237430000
N  -0.3694200000  1.4851320000  0.0836290000
N  1.5242980000  -0.2988780000  0.1593920000
C  1.8254160000  -0.1177060000  1.5696970000
H  1.6604940000  -1.0350690000  2.1468940000
H  2.8737940000  0.1752910000  1.6777110000
H  1.2066850000  0.6716140000  1.9920100000
C  2.4101080000  -1.2302380000  -0.5258450000
H  3.4398270000  -0.8685080000  -0.4563600000
H  2.3677420000  -2.2327730000  -0.0814120000
H  2.1304140000  -1.2942190000  -1.5747930000
C  -1.7578790000  -2.1291550000  -0.3835630000
H  -2.8411860000  -2.1231810000  -0.2385720000
H  -1.5390170000  -2.0418480000  -1.4444900000
H  -1.3580600000  -3.0757000000  -0.0073240000
C  -1.4132500000  -0.9032890000  1.6823710000
H  -2.1656190000  -1.5565280000  2.0978290000
H  -1.1047670000  -0.0116610000  2.2036780000
C  -1.7491320000  1.9476200000  -0.0325130000
H  -1.9181630000  2.7462090000  0.6937910000
H  -1.9615840000  2.3379800000  -1.0346820000
H  -2.4419700000  1.1379350000  0.1834080000
C  0.5946060000  2.5561130000  -0.1509540000
H  0.4706920000  3.0001430000  -1.1456230000
H  0.4486550000  3.3386070000  0.5979610000
H  1.6101380000  2.1765730000  -0.0666440000