51
charge=1, multiplicity=1, basis=def2-QZVPP, mem_total=120000, AUX_BASIS_CORR=rimp2-def2-QZVPPD, SCF_ALGORITHM=GDM, xc_grid=000099000590, num_basis=2124, num_pairs=1379265, num_threads=32
C  -1.9493860000  3.4104060000  -0.4669190000
C  -2.0904470000  1.8762790000  -0.4615760000
C  -0.4250180000  2.2049030000  0.9603800000
C  -0.7979470000  3.6449040000  0.5562160000
H  -1.7185690000  3.7950030000  -1.4614230000
H  -2.8802350000  3.8776790000  -0.1454200000
H  0.0504830000  4.1793250000  0.1317070000
H  -1.1413840000  4.1978870000  1.4307140000
C  -1.7961800000  1.5265770000  0.9974360000
H  -1.7660900000  0.4610180000  1.1996160000
H  -2.4785580000  2.0210050000  1.6865320000
H  -2.9919350000  1.4639100000  -0.9059150000
H  0.2303070000  2.0933020000  1.8171850000
N  0.1583660000  1.6011280000  -0.2543980000
N  -0.8913640000  1.2872520000  -1.1103300000
C  -0.3083640000  -1.1432350000  -1.0833680000
C  -1.5202660000  -1.5552100000  -0.3913900000
C  -1.5058290000  -2.0300130000  0.9252680000
C  -2.7410700000  -1.5306240000  -1.0780520000
C  -2.6787240000  -2.4316400000  1.5432200000
H  -0.5717580000  -2.1138160000  1.4653810000
C  -3.9115120000  -1.9313360000  -0.4611130000
H  -2.7627650000  -1.1897060000  -2.1073570000
C  -3.8841530000  -2.3772790000  0.8560480000
H  -2.6507020000  -2.8046410000  2.5593120000
H  -4.8466770000  -1.9073860000  -1.0064270000
H  -4.7984910000  -2.6992910000  1.3385140000
H  -0.3757440000  -1.1548000000  -2.1678550000
C  0.9566820000  -1.0058020000  -0.5206930000
H  1.0021890000  -1.2006560000  0.5452560000
C  1.3234360000  0.9631720000  -0.4488240000
H  1.6182750000  0.9439440000  -1.4948790000
C  2.1680170000  -1.5147200000  -1.3107300000
H  1.8232800000  -2.1744400000  -2.1086670000
H  2.6902860000  -0.7010180000  -1.8164000000
C  2.4454200000  1.2574470000  0.5244760000
H  2.2289730000  0.7948650000  1.4906010000
H  2.4192650000  2.3364210000  0.6986210000
C  3.8558210000  0.8716520000  0.0381270000
H  3.8515690000  0.7640150000  -1.0474290000
H  4.5211280000  1.7144970000  0.2329580000
C  4.4859260000  -0.3613640000  0.7008760000
H  5.4002870000  -0.6059540000  0.1523120000
H  4.8123400000  -0.0747510000  1.7053020000
C  3.1528830000  -2.3022160000  -0.4372280000
H  4.0176470000  -2.5638310000  -1.0539760000
H  2.6827300000  -3.2505550000  -0.1602810000
C  3.6333900000  -1.6221980000  0.8451870000
H  2.7812790000  -1.4136520000  1.5005440000
H  4.2298550000  -2.3527620000  1.3973540000
H  -0.7220540000  1.6475180000  -2.0468360000