11
charge=1, multiplicity=2, basis=def2-QZVPP, AUX_BASIS_CORR=rimp2-def2-QZVPPD, SCF_ALGORITHM=GDM, xc_grid=000099000590, mem_total=3750, num_basis=492, num_pairs=115925, num_threads=1
C  0.0000010000  1.3338430000  0.0000000000
C  0.0000000000  0.6512220000  1.2100410000
C  0.0000000000  -0.7431720000  1.1963350000
N  -0.0000080000  -1.2674840000  0.0000000000
C  0.0000000000  -0.7431720000  -1.1963350000
C  0.0000000000  0.6512220000  -1.2100410000
H  0.0000130000  2.4173560000  0.0000000000
H  0.0000090000  1.1597010000  2.1657300000
H  0.0000120000  -1.3820140000  2.0732900000
H  0.0000120000  -1.3820140000  -2.0732900000
H  0.0000090000  1.1597010000  -2.1657300000