14
charge=0, multiplicity=2, basis=def2-QZVPP, AUX_BASIS_CORR=rimp2-def2-QZVPPD, SCF_ALGORITHM=GDM, xc_grid=000099000590, mem_total=7500, num_basis=649, num_pairs=185269, num_threads=2
C  -0.2426110000  1.2118390000  -0.0000030000
C  1.1341200000  1.2109540000  0.0000200000
C  1.8741110000  0.0000000000  0.0000310000
C  1.1341200000  -1.2109540000  0.0000180000
C  -0.2426110000  -1.2118390000  -0.0000050000
C  -0.9286590000  0.0000000000  -0.0000150000
H  -0.7957970000  2.1417700000  -0.0000120000
H  -0.7957970000  -2.1417700000  -0.0000140000
H  1.6696050000  -2.1529400000  0.0000260000
H  1.6696050000  2.1529400000  0.0000290000
C  3.2732700000  0.0000000000  0.0000540000
Cl  -2.6717100000  0.0000000000  -0.0000440000
H  3.8305140000  -0.9273010000  0.0000630000
H  3.8305140000  0.9273000000  0.0000640000