20
charge=0, multiplicity=2, basis=def2-QZVPP, AUX_BASIS_CORR=rimp2-def2-QZVPPD, SCF_ALGORITHM=GDM, xc_grid=000099000590, mem_total=7500, num_basis=789, num_pairs=279062, num_threads=2
C  -0.5002000000  -0.5868490000  -0.3410070000
C  0.7787070000  -1.3493610000  0.0166920000
C  1.9095370000  -0.2989400000  0.0017880000
H  0.9657040000  -2.1849470000  -0.6609260000
H  0.6670970000  -1.7728680000  1.0201570000
C  1.2038510000  1.0756100000  0.0025080000
H  2.5426240000  -0.4081460000  -0.8805090000
H  2.5617030000  -0.4140210000  0.8691490000
C  -0.2722820000  0.7901610000  0.3338280000
H  1.2578210000  1.5321310000  -0.9902540000
H  1.6494840000  1.7849200000  0.7013830000
C  -1.2094860000  1.8552820000  -0.0903440000
C  -1.7842300000  -1.2857330000  0.0709660000
H  -1.8055550000  -1.4454250000  1.1534340000
H  -1.8755780000  -2.2623210000  -0.4108700000
H  -2.6627090000  -0.6957220000  -0.1993770000
H  -2.0555000000  2.1510050000  0.5156460000
H  -1.1117460000  2.3001270000  -1.0746470000
H  -0.3704180000  0.6299020000  1.4152920000
H  -0.5183090000  -0.4156550000  -1.4250670000