12
charge=0, multiplicity=2, basis=def2-QZVPP, AUX_BASIS_CORR=rimp2-def2-QZVPPD, SCF_ALGORITHM=GDM, xc_grid=000099000590, mem_total=3750, num_basis=589, num_pairs=156748, num_threads=1
C  1.7552490000  0.0000000000  -0.0000300000
C  1.0921160000  -1.2164410000  -0.0000210000
C  -0.2872570000  -1.2119340000  0.0000060000
C  -1.0101020000  0.0000000000  0.0000260000
C  -0.2872570000  1.2119340000  0.0000030000
C  1.0921160000  1.2164410000  -0.0000230000
S  -2.7278260000  0.0000000000  0.0000540000
H  1.6618630000  -2.1362670000  -0.0000340000
H  -0.8371900000  -2.1437710000  0.0000130000
H  -0.8371910000  2.1437710000  0.0000090000
H  1.6618620000  2.1362670000  -0.0000390000
F  3.0962960000  0.0000000000  -0.0000650000