14
charge=0, multiplicity=1, basis=def2-QZVPP, AUX_BASIS_CORR=rimp2-def2-QZVPPD, SCF_ALGORITHM=GDM, xc_grid=000099000590, mem_total=3750, num_basis=636, num_pairs=173519, num_threads=1
N  0.0260840000  -0.3586900000  -0.0002160000
C  1.1582280000  0.4646840000  0.0000090000
C  -1.3667470000  -0.0918890000  0.0000050000
O  -2.1354710000  -1.0098670000  0.0001890000
O  1.0352420000  1.6624870000  0.0000720000
C  -1.7562200000  1.3558680000  -0.0000930000
C  2.4704710000  -0.2625090000  0.0001200000
F  0.3073860000  -1.7014530000  -0.0001050000
H  -1.3556560000  1.8683950000  -0.8739670000
H  -1.3556990000  1.8684750000  0.8737570000
H  -2.8432160000  1.3897640000  -0.0001120000
H  3.2598710000  0.4843920000  0.0002290000
H  2.5566260000  -0.9024700000  -0.8788400000
H  2.5564400000  -0.9025270000  0.8790570000