14
charge=0, multiplicity=2, basis=def2-QZVPP, AUX_BASIS_CORR=rimp2-def2-QZVPPD, SCF_ALGORITHM=GDM, xc_grid=000099000590, mem_total=7500, num_basis=649, num_pairs=185731, num_threads=2
C  -1.7757240000  0.0000000000  -0.0044620000
C  -1.0601920000  -1.2101420000  -0.0050330000
C  0.3119440000  -1.2072340000  -0.0024240000
C  1.0501600000  0.0000000000  -0.0003780000
C  0.3119440000  1.2072340000  -0.0024240000
C  -1.0601920000  1.2101420000  -0.0050330000
S  2.7570280000  0.0000000000  0.0049760000
H  -1.6027350000  -2.1489740000  -0.0097190000
H  0.8579230000  -2.1419880000  -0.0012580000
H  0.8579230000  2.1419880000  -0.0012580000
H  -1.6027350000  2.1489740000  -0.0097190000
N  -3.1443780000  0.0000000000  -0.0366330000
H  -3.6399060000  -0.8530720000  0.1586510000
H  -3.6399060000  0.8530720000  0.1586500000