37
charge=0, multiplicity=1, basis=def2-QZVPP, AUX_BASIS_CORR=rimp2-def2-QZVPPD, SCF_ALGORITHM=GDM, xc_grid=000099000590, mem_total=60000, num_basis=1515, num_pairs=801326, num_threads=16
C  1.0711260000  1.2977250000  -0.1458230000
C  1.4403350000  -1.2349580000  0.0541810000
C  -0.0114870000  -1.4413550000  -0.3932570000
C  -0.9202790000  -0.2863840000  -0.0099860000
C  -0.3661440000  1.0089820000  -0.5898690000
H  -0.0244560000  -1.5531980000  -1.4839630000
H  -0.3811980000  -2.3749130000  0.0384470000
H  -0.9911680000  -0.1994550000  1.0740130000
H  -0.3923160000  0.9371470000  -1.6823820000
H  -1.0029100000  1.8454610000  -0.2952090000
N  1.8729860000  0.0883700000  -0.4514540000
O  3.2091230000  0.3147020000  -0.0008550000
C  1.6276340000  2.4261920000  -1.0175690000
H  0.9749170000  3.2996480000  -0.9593640000
H  2.6211730000  2.7250760000  -0.6818470000
H  1.6883850000  2.1048050000  -2.0592260000
C  1.1205070000  1.7513500000  1.3215620000
H  2.1494070000  1.7494240000  1.6808060000
H  0.7345310000  2.7698690000  1.3966730000
H  0.5191750000  1.1315500000  1.9829910000
C  2.3106840000  -2.2824110000  -0.6452980000
H  3.3410720000  -2.2296350000  -0.2932750000
H  1.9330810000  -3.2854870000  -0.4351250000
H  2.2987870000  -2.1235480000  -1.7253600000
C  1.5856260000  -1.4233450000  1.5724600000
H  1.4905610000  -2.4836580000  1.8167350000
H  2.5696900000  -1.0871010000  1.8978330000
H  0.8319160000  -0.8870400000  2.1447990000
H  3.7239310000  0.3396590000  -0.8118790000
N  -2.2750740000  -0.5436160000  -0.4720050000
C  -3.3625740000  -0.0130340000  0.1464980000
C  -4.6995960000  -0.3265880000  -0.4839660000
H  -5.3319690000  -0.8048030000  0.2643090000
H  -5.1782550000  0.6110150000  -0.7686490000
H  -4.6281900000  -0.9731670000  -1.3594550000
O  -3.2723290000  0.6678660000  1.1517960000
H  -2.4008930000  -1.0425040000  -1.3377820000