39
charge=1, multiplicity=1, basis=def2-QZVPP, AUX_BASIS_CORR=rimp2-def2-QZVPPD, SCF_ALGORITHM=GDM, xc_grid=000099000590, mem_total=60000, num_basis=1656, num_pairs=954778, num_threads=16
C  -1.4318210000  -2.6348420000  -0.7138140000
C  -0.5519620000  -1.6415920000  0.0509780000
C  -2.5980920000  -0.9444160000  0.5353940000
C  -2.8691570000  -2.1499880000  -0.3705060000
H  -1.2178050000  -2.6405440000  -1.7848160000
H  -1.2371120000  -3.6422950000  -0.3477350000
H  -3.4451430000  -1.8604410000  -1.2475470000
H  -3.4310580000  -2.9135620000  0.1664550000
C  -1.3544200000  -1.3793130000  1.3187820000
H  -0.9407880000  -0.6112510000  1.9699070000
H  -1.5018710000  -2.2941770000  1.8906090000
H  0.5045110000  -1.8736380000  0.1269420000
H  -3.4553020000  -0.5844710000  1.0963220000
N  -2.0864130000  0.1539580000  -0.3249190000
N  -0.7283580000  -0.3129310000  -0.6799490000
C  0.2754750000  0.8462100000  -0.4300030000
C  1.6667290000  0.3457860000  -0.1705080000
C  2.5216100000  0.1673030000  -1.2561810000
C  2.1227500000  0.0350210000  1.1091820000
C  3.8054280000  -0.3245770000  -1.0719090000
H  2.1887350000  0.4297350000  -2.2550680000
C  3.4060820000  -0.4556670000  1.2941460000
H  1.4868210000  0.1772080000  1.9735580000
C  4.2478430000  -0.6388460000  0.2047390000
H  4.4622170000  -0.4512870000  -1.9230840000
H  3.7533390000  -0.6884110000  2.2928520000
H  5.2516810000  -1.0162440000  0.3534370000
C  -1.9103310000  1.4457840000  0.3496470000
H  -2.5412590000  1.4790480000  1.2362450000
C  -0.4157260000  1.7243660000  0.6037420000
H  -0.0259530000  1.5802590000  1.6079620000
C  -1.9873440000  2.7318000000  -0.5009900000
C  -0.6382770000  3.1763880000  0.1199870000
H  0.1166270000  3.5944890000  -0.5449050000
H  -0.7745360000  3.8561020000  0.9594030000
H  -2.8491250000  3.3749590000  -0.3359910000
H  -1.9205020000  2.5130330000  -1.5672510000
H  0.2725810000  1.3670440000  -1.3882960000
H  -0.7253850000  -0.5032530000  -1.6810330000