28
charge=1, multiplicity=1, basis=def2-QZVPP, mem_total=30000, AUX_BASIS_CORR=rimp2-def2-QZVPPD, SCF_ALGORITHM=GDM, xc_grid=000099000590, num_basis=1177, num_pairs=512446, num_threads=8
S  1.7731040000  0.1835070000  -0.4556340000
C  2.8885630000  1.6034610000  -0.4529180000
H  2.2729990000  2.4907240000  -0.3133400000
H  3.3697130000  1.6479620000  -1.4288340000
H  3.6320960000  1.5171360000  0.3377230000
C  1.2164230000  0.1641680000  1.2916270000
C  2.9434830000  -1.1885890000  -0.5050420000
C  -0.2946170000  0.1406710000  1.3571480000
H  1.6013370000  1.0751770000  1.7463640000
H  1.6620970000  -0.7041590000  1.7739560000
C  -0.9410100000  -1.1582910000  0.8464650000
C  -2.2234230000  -0.6562620000  0.1360200000
C  -2.1791580000  0.8821260000  0.2713120000
O  -0.7819980000  1.1764800000  0.5371580000
N  -2.6815740000  1.5412570000  -0.8637020000
H  -2.7525060000  1.1910840000  1.1514110000
O  -2.1450070000  -1.0746300000  -1.2101480000
H  -3.1231980000  -1.0546530000  0.6069070000
O  -0.0594880000  -1.8075950000  -0.0494390000
H  -1.1730040000  -1.8354940000  1.6702810000
H  -0.5634780000  -1.9992350000  -0.8569790000
H  -3.0021510000  -0.9787980000  -1.6368200000
H  -0.5832270000  0.3068690000  2.4044210000
H  -2.8356920000  2.5303320000  -0.7290080000
H  -2.1314420000  1.3694490000  -1.6952060000
H  2.3563320000  -2.0923090000  -0.3604960000
H  3.6994400000  -1.0744710000  0.2697890000
H  3.4024180000  -1.1922690000  -1.4923480000