36
charge=0, multiplicity=1, basis=def2-QZVPP, AUX_BASIS_CORR=rimp2-def2-QZVPPD, SCF_ALGORITHM=GDM, xc_grid=000099000590, mem_total=60000, num_basis=1620, num_pairs=896032, num_threads=16
C  1.4278470000  0.4322510000  0.2339450000
C  -0.0084480000  0.8067000000  0.4776190000
C  2.4386410000  1.3034750000  0.1812730000
C  -0.4486960000  1.6130080000  -0.7152170000
C  2.2711320000  2.7367510000  0.1982080000
C  0.0822900000  2.8116410000  -0.9880460000
C  1.2155440000  3.4066530000  -0.3164350000
H  -1.2326130000  1.2186730000  -1.3483210000
H  -0.3487780000  3.3906620000  -1.7990020000
H  1.2821630000  4.4896410000  -0.3473120000
H  3.1181910000  3.3179010000  0.5470330000
C  -1.7560410000  -1.4577590000  -1.2110170000
C  -0.7647020000  -0.5254240000  0.7418950000
H  -0.0634300000  1.4524030000  1.3609920000
C  -2.0750850000  -0.6739900000  -0.0127560000
C  0.1292850000  -1.6481510000  0.1599000000
H  -0.8930250000  -0.6493010000  1.8160180000
C  -0.5176340000  -1.9493340000  -1.1663900000
C  -3.2562260000  -0.1571370000  0.3417920000
C  -4.5093520000  -0.3408300000  -0.4644440000
C  -3.4324640000  0.6787430000  1.5761420000
H  -2.5236740000  0.7626660000  2.1693790000
H  -4.2198970000  0.2655260000  2.2138580000
H  -3.7481860000  1.6913550000  1.3043710000
H  -4.3638170000  -0.9527710000  -1.3521400000
H  -4.9062070000  0.6291730000  -0.7803410000
H  -5.2861120000  -0.8131760000  0.1447590000
C  1.5904640000  -1.0897260000  0.1452800000
C  2.2956080000  -1.5638000000  1.3465710000
N  2.8077440000  -1.9215800000  2.3078120000
C  2.3383670000  -1.5067570000  -1.0446980000
N  2.9042000000  -1.8303190000  -1.9874170000
H  3.4558120000  0.9293130000  0.1073440000
H  0.1135770000  -2.5492730000  0.7776220000
H  -2.4406280000  -1.6163890000  -2.0326390000
H  -0.0501800000  -2.5610010000  -1.9261340000