11
charge=0, multiplicity=2, basis=def2-QZVPP, AUX_BASIS_CORR=rimp2-def2-QZVPPD, SCF_ALGORITHM=GDM, xc_grid=000099000590, mem_total=3750, num_basis=451, num_pairs=97382, num_threads=1
S  -1.8141640000  -0.0910510000  -0.0001140000
C  -0.1252640000  0.5346880000  0.0000750000
C  0.9692560000  -0.5240140000  -0.0000450000
C  2.3631200000  0.0951180000  0.0001560000
H  3.1357730000  -0.6758140000  0.0000580000
H  2.5189770000  0.7211750000  0.8827460000
H  2.5190850000  0.7215070000  -0.8821790000
H  0.8427590000  -1.1670970000  0.8746960000
H  0.8428760000  -1.1667790000  -0.8750360000
H  -0.0376960000  1.1947110000  -0.8704470000
H  -0.0378190000  1.1943710000  0.8708720000