41
charge=1, multiplicity=1, basis=def2-QZVPP, AUX_BASIS_CORR=rimp2-def2-QZVPPD, SCF_ALGORITHM=GDM, xc_grid=000099000590, mem_total=60000, num_basis=1716, num_pairs=1017482, num_threads=16
C  2.0402220000  -1.6126720000  1.1910930000
C  1.1649350000  -1.9356490000  -0.0217380000
C  2.6839250000  -0.5514470000  -0.8664400000
C  3.1245200000  -0.6703800000  0.6003400000
H  1.4954370000  -1.1788960000  2.0267260000
H  2.4663580000  -2.5475590000  1.5545490000
H  3.1788840000  0.2875930000  1.1080040000
H  4.1172550000  -1.1182240000  0.6548920000
C  2.1912310000  -1.9737380000  -1.1571990000
H  1.7622430000  -2.0911420000  -2.1515270000
H  2.9490000000  -2.7364420000  -0.9869400000
H  0.4660980000  -2.7618770000  0.0849180000
H  3.4210960000  -0.1478630000  -1.5542850000
N  1.4042960000  0.1653410000  -1.0479160000
N  0.3961080000  -0.6903150000  -0.4398870000
C  -0.4166320000  0.0974160000  0.5970960000
C  -1.8748470000  -0.0003950000  0.2417290000
C  -2.3706330000  0.5830860000  -0.9251480000
C  -2.7413570000  -0.6970930000  1.0765240000
C  -3.7124510000  0.4641160000  -1.2495760000
H  -1.7166310000  1.1464630000  -1.5828900000
C  -4.0879510000  -0.8073910000  0.7559350000
H  -2.3667910000  -1.1497480000  1.9880180000
C  -4.5728350000  -0.2302250000  -0.4076080000
H  -4.0906110000  0.9211310000  -2.1552620000
H  -4.7565150000  -1.3450390000  1.4162140000
H  -5.6223130000  -0.3166250000  -0.6591210000
C  1.0962490000  1.5563410000  -0.6725220000
H  0.4620580000  1.9360970000  -1.4784170000
C  0.2117230000  1.5088360000  0.6017310000
H  -0.5936760000  2.2307830000  0.4660570000
C  2.3254150000  2.4455120000  -0.6327760000
H  2.8529830000  2.4066160000  -1.5865470000
H  2.0150360000  3.4791300000  -0.4766460000
H  3.0215800000  2.1817030000  0.1611680000
C  0.8891690000  1.8328580000  1.9295970000
H  1.3015290000  2.8416450000  1.9212200000
H  0.1558200000  1.7905020000  2.7371550000
H  1.6950380000  1.1433320000  2.1803280000
H  -0.2546220000  -0.3924020000  1.5524160000
H  -0.2661760000  -0.9594190000  -1.1716490000