55
charge=0, multiplicity=1, basis=def2-QZVPP, mem_total=120000, AUX_BASIS_CORR=rimp2-def2-QZVPPD, SCF_ALGORITHM=GDM, xc_grid=000099000590, num_basis=2325, num_pairs=1416068, num_threads=32
C  5.7789290000  0.7602540000  1.7072760000
C  5.2979960000  -0.4281750000  0.8841900000
C  3.8675780000  -0.2596170000  0.3965070000
C  3.2886590000  -1.5151280000  -0.2867880000
C  1.8237320000  -1.3528310000  -0.5774220000
C  0.7782660000  -1.8803390000  0.0731160000
C  -0.5691530000  -1.5525240000  -0.4084840000
C  -1.7209400000  -1.9905270000  0.0971650000
C  -4.2088930000  1.7720440000  0.1943410000
C  -3.0431940000  2.0077220000  0.8018740000
C  -1.8431750000  2.4543350000  0.1188620000
C  -0.6177680000  2.1888750000  0.5943390000
C  0.5991360000  2.3314170000  -0.1687150000
C  1.7407540000  1.7380500000  0.1932600000
C  2.9062960000  1.7525480000  -0.7145140000
C  4.0397190000  -1.8790470000  -1.5708190000
C  -3.0766060000  -1.5754590000  -0.4083460000
C  -4.0117440000  -1.2335720000  0.7662090000
C  -5.3261550000  -0.5010890000  0.3968370000
C  -5.3202620000  0.9919620000  0.8143530000
C  0.8869640000  -2.7711660000  1.2778720000
O  3.0135490000  2.5236570000  -1.6315250000
O  3.8940690000  0.8511490000  -0.5197500000
O  -2.9866620000  -0.5221430000  -1.3647810000
O  -5.6921770000  -0.6666240000  -0.9592260000
H  5.7500030000  1.6765290000  1.1161570000
H  6.8054590000  0.6111890000  2.0463690000
H  5.1545040000  0.9074610000  2.5931220000
H  5.9516000000  -0.5694750000  0.0212420000
H  5.3468930000  -1.3450420000  1.4796160000
H  3.2423250000  -0.0173540000  1.2576870000
H  3.4266490000  -2.3228740000  0.4357930000
H  1.6008300000  -0.7265520000  -1.4383870000
H  0.5637490000  2.8595770000  -1.1170510000
H  1.7776780000  1.1794090000  1.1169290000
H  3.9955870000  -1.0581350000  -2.2882590000
H  3.5892840000  -2.7601520000  -2.0303160000
H  5.0895800000  -2.1014660000  -1.3763470000
H  -3.5240140000  -2.4002900000  -0.9691650000
H  -3.4583820000  -0.6387650000  1.4969960000
H  -4.2510720000  -2.1792300000  1.2596510000
H  -6.1407860000  -0.9609000000  0.9597080000
H  -5.2410370000  1.0352800000  1.9048760000
H  -6.2912420000  1.4053870000  0.5324880000
H  0.4041420000  -3.7340190000  1.0908930000
H  0.3799700000  -2.3212420000  2.1362480000
H  1.9179810000  -2.9654130000  1.5643000000
H  -2.5577940000  0.2307140000  -0.9423150000
H  -4.9194500000  -0.4504700000  -1.5001300000
H  -0.5292730000  1.7162660000  1.5695830000
H  -1.9537510000  2.8940780000  -0.8700300000
H  -4.3236790000  2.0520200000  -0.8502230000
H  -2.9199040000  1.7103610000  1.8410260000
H  -1.7323190000  -2.6769450000  0.9386010000
H  -0.6045900000  -0.8846540000  -1.2634710000