32
charge=1, multiplicity=1, basis=def2-QZVPP, mem_total=30000, AUX_BASIS_CORR=rimp2-def2-QZVPPD, SCF_ALGORITHM=GDM, xc_grid=000099000590, num_basis=1365, num_pairs=604159, num_threads=8
C  1.3274910000  -1.2837380000  -0.2011920000
N  0.3072810000  -0.5878070000  -0.4219150000
N  -0.5252350000  0.2205060000  -0.7224630000
C  -1.8519100000  0.1050310000  -0.2830610000
C  -2.3051250000  -0.9335300000  0.5372690000
C  -2.7024070000  1.1179980000  -0.7227200000
C  -3.6301370000  -0.9453760000  0.9140520000
H  -1.6300610000  -1.7123190000  0.8706380000
C  -4.0310300000  1.0922810000  -0.3362040000
H  -2.3074230000  1.9021310000  -1.3556800000
C  -4.4895680000  0.0653120000  0.4775940000
H  -4.0057950000  -1.7374900000  1.5483920000
H  -4.7070750000  1.8693100000  -0.6672680000
H  -5.5292810000  0.0455090000  0.7800240000
C  2.1810900000  -0.9781700000  1.0025590000
C  1.6654350000  -2.4100200000  -1.1296400000
H  2.6374170000  -2.2074580000  -1.5844140000
H  1.7532060000  -3.3365130000  -0.5593470000
H  0.9227170000  -2.5312470000  -1.9149580000
C  2.8915040000  1.9415420000  0.4770460000
C  1.8567980000  2.6208380000  0.0040910000
C  3.5650930000  0.8008580000  -0.2260550000
C  3.5815020000  -0.4868410000  0.6035760000
H  1.6815850000  -0.2292560000  1.6168160000
H  2.2614270000  -1.8999700000  1.5847470000
H  4.1195130000  -1.2713230000  0.0668280000
H  4.1328560000  -0.3218890000  1.5324660000
H  3.0835940000  0.6306640000  -1.1954390000
H  4.6017960000  1.0722240000  -0.4453120000
H  3.3111120000  2.2187780000  1.4422410000
H  1.4215270000  2.3922450000  -0.9638400000
H  1.4261450000  3.4505920000  0.5508580000