17
charge=0, multiplicity=1, basis=def2-QZVPP, AUX_BASIS_CORR=rimp2-def2-QZVPPD, SCF_ALGORITHM=GDM, xc_grid=000099000590, mem_total=7500, num_basis=726, num_pairs=232715, num_threads=2
C  1.0813890000  0.0127640000  0.0554680000
C  -0.0795040000  -0.8356620000  -0.4039160000
N  0.4806270000  1.2862970000  0.4103340000
N  -0.7555580000  1.2491270000  0.2408400000
N  -1.1637990000  0.0893630000  -0.3288550000
C  -2.5499820000  -0.2879520000  -0.2122340000
H  -3.1472440000  0.6214790000  -0.1815420000
H  -2.8451540000  -0.8769760000  -1.0819850000
H  -2.7410550000  -0.8741780000  0.6945140000
C  0.6063640000  -1.1426350000  0.8999910000
H  1.2515630000  -2.0112490000  0.9128280000
H  0.0871070000  -0.9284120000  1.8265690000
C  2.4581570000  0.0754550000  -0.5313380000
H  2.4717850000  0.7058750000  -1.4221040000
H  3.1545360000  0.4967840000  0.1961120000
H  2.8085770000  -0.9213240000  -0.8041040000
H  -0.0675510000  -1.5173350000  -1.2443510000