18
charge=0, multiplicity=2, basis=def2-QZVPP, AUX_BASIS_CORR=rimp2-def2-QZVPPD, SCF_ALGORITHM=GDM, xc_grid=000099000590, mem_total=7500, num_basis=756, num_pairs=249743, num_threads=2
N  0.3862400000  0.7013780000  -0.3898570000
C  1.1619080000  -0.3720700000  -0.0564400000
C  0.3765290000  -1.6612420000  0.0485220000
C  -1.1054840000  -1.3832070000  -0.1842830000
H  0.5526290000  -2.0528020000  1.0547120000
H  0.7897680000  -2.3940790000  -0.6457940000
C  -1.4674200000  -0.0626480000  0.4392770000
H  -1.7190060000  -2.1770130000  0.2511450000
H  -1.3299700000  -1.3436570000  -1.2517560000
C  -2.4098690000  0.7812310000  -0.0468280000
H  -1.1425470000  0.0810840000  1.4681350000
H  -2.8338450000  0.6360630000  -1.0337960000
H  -2.7231640000  1.6564950000  0.5079520000
O  2.3680460000  -0.2960180000  0.0987440000
C  0.7853080000  2.0213020000  0.0147390000
H  1.7107600000  2.2738070000  -0.5118150000
H  0.9841640000  2.1019990000  1.0887780000
H  0.0173260000  2.7364080000  -0.2784290000