37
charge=0, multiplicity=2, basis=def2-QZVPP, AUX_BASIS_CORR=rimp2-def2-QZVPPD, SCF_ALGORITHM=GDM, xc_grid=000099000590, mem_total=60000, num_basis=1568, num_pairs=724734, num_threads=16
N  -1.1343400000  0.4408350000  0.3802760000
S  -1.9003010000  -0.9526630000  -0.1678590000
O  -1.2572560000  -2.0159000000  0.8429870000
C  -1.5461860000  -1.8675080000  2.2427110000
C  -1.6075050000  1.7708410000  -0.1192210000
Cl  0.7919310000  0.1269460000  -0.0486640000
O  -3.3105450000  -0.8165370000  0.1300690000
O  -1.4829050000  -1.3908700000  -1.4745300000
C  2.7381600000  -0.6112600000  -1.0761220000
C  3.6719910000  -0.4196270000  -0.0232370000
C  4.4036160000  0.7066910000  0.1439270000
C  5.3683100000  0.9365620000  1.2540370000
H  -1.1169800000  -2.7475960000  2.7141610000
H  -1.0756490000  -0.9600780000  2.6204160000
H  -2.6237790000  -1.8379940000  2.4029580000
C  -0.6177770000  2.8115910000  0.4089170000
C  -2.9729960000  2.0631730000  0.5226390000
C  -1.6950560000  1.8426450000  -1.6431150000
H  2.7106420000  0.1570240000  -1.8425350000
C  2.2820370000  -1.9741890000  -1.4802360000
H  3.7814740000  -1.2295770000  0.6947470000
H  4.2759520000  1.5139560000  -0.5737650000
H  5.4359050000  0.0710570000  1.9144330000
H  5.0688830000  1.8027110000  1.8530210000
H  6.3683210000  1.1557040000  0.8677010000
H  2.1760270000  -2.6286740000  -0.6137830000
H  3.0213280000  -2.4213780000  -2.1556290000
H  1.3240200000  -1.9377560000  -1.9985430000
H  -1.0243680000  3.8076630000  0.2267480000
H  -0.4697110000  2.6884380000  1.4827940000
H  0.3492250000  2.7397970000  -0.0844520000
H  -3.2469330000  3.0938000000  0.2877870000
H  -2.9112370000  1.9601440000  1.6070590000
H  -3.7508380000  1.3991420000  0.1578690000
H  -1.9554390000  2.8587390000  -1.9463960000
H  -2.4567120000  1.1675480000  -2.0351730000
H  -0.7396780000  1.5789570000  -2.0983540000