15
charge=0, multiplicity=1, basis=def2-QZVPP, AUX_BASIS_CORR=rimp2-def2-QZVPPD, SCF_ALGORITHM=GDM, xc_grid=000099000590, mem_total=3750, num_basis=585, num_pairs=148461, num_threads=1
C  -1.1784510000  -0.5175400000  0.0000140000
O  0.0000000000  0.2576450000  -0.0000040000
C  1.1784510000  -0.5175400000  -0.0000100000
H  1.1948530000  -1.1691510000  -0.8858490000
H  1.1948630000  -1.1691520000  0.8858280000
C  -2.3702230000  0.4119130000  0.0000160000
H  -2.3556280000  1.0507740000  -0.8844190000
H  -2.3556030000  1.0507990000  0.8844330000
C  2.3702230000  0.4119130000  -0.0000170000
H  2.3556290000  1.0507780000  0.8844150000
H  3.3005690000  -0.1600870000  -0.0000360000
H  2.3556030000  1.0507950000  -0.8844360000
H  -3.3005690000  -0.1600870000  0.0000370000
H  -1.1948500000  -1.1691440000  0.8858590000
H  -1.1948660000  -1.1691590000  -0.8858190000