20
charge=0, multiplicity=2, basis=def2-QZVPP, AUX_BASIS_CORR=rimp2-def2-QZVPPD, SCF_ALGORITHM=GDM, xc_grid=000099000590, mem_total=15000, num_basis=937, num_pairs=353395, num_threads=4
N  0.3862730000  1.4102220000  0.2081270000
H  1.2559160000  1.9128920000  0.0699150000
C  0.4077990000  0.0305280000  -0.1426960000
H  -0.6452790000  -0.1680010000  -0.9122000000
C  1.5274020000  -0.3017180000  -1.0946940000
C  0.2447330000  -0.9891310000  0.9867500000
H  1.3752220000  0.2313000000  -2.0338720000
H  1.5306490000  -1.3689890000  -1.2936950000
S  3.1823290000  0.2067920000  -0.5021340000
O  1.0701470000  -1.8747760000  1.1091360000
H  3.2049820000  -0.6404640000  0.5417210000
N  -0.8379400000  -0.8504750000  1.7697610000
H  -0.9640290000  -1.5123850000  2.5192250000
H  -1.5037510000  -0.1000440000  1.6207360000
C  -0.6957920000  2.1067350000  0.6302560000
H  -0.4858230000  3.1762780000  0.7734530000
O  -1.7919870000  1.6247890000  0.8326400000
N  -1.5892130000  -0.3212170000  -1.7569840000
N  -3.6028360000  -0.8035830000  -0.6467350000
N  -2.6156110000  -0.5660690000  -1.1546040000