7
charge=0, multiplicity=2, basis=def2-QZVPP, AUX_BASIS_CORR=rimp2-def2-QZVPPD, SCF_ALGORITHM=GDM, xc_grid=000099000590, mem_total=3750, num_basis=318, num_pairs=49868, num_threads=1
C  1.3740850000  -0.2768260000  0.0000160000
C  -0.0146220000  0.1093880000  -0.0000070000
H  1.6601900000  -1.3185190000  0.0001050000
H  2.1178160000  0.5055980000  -0.0000560000
O  -0.4151210000  1.2525810000  -0.0000870000
O  -0.8570270000  -0.9504890000  0.0000690000
H  -1.7576010000  -0.5991940000  0.0000480000