19
charge=0, multiplicity=1, basis=def2-QZVPP, AUX_BASIS_CORR=rimp2-def2-QZVPPD, SCF_ALGORITHM=GDM, xc_grid=000099000590, mem_total=7500, num_basis=813, num_pairs=270175, num_threads=2
C  -0.9057830000  0.0217950000  -0.3500350000
C  -0.1795650000  1.2008120000  -0.2300100000
C  1.1925090000  1.1875400000  -0.0166150000
C  1.8633250000  -0.0234410000  0.0797590000
C  1.1587530000  -1.2140730000  -0.0397690000
C  -0.2089620000  -1.1816600000  -0.2516360000
C  -2.4018470000  0.0408630000  -0.5321150000
C  -3.1575660000  -0.0257080000  0.7972140000
H  -2.7016110000  -0.8005980000  -1.1628830000
H  -2.6905010000  0.9481860000  -1.0695800000
H  -2.9051270000  -0.9374710000  1.3431590000
H  -4.2383240000  -0.0133680000  0.6382630000
H  -2.8977790000  0.8223350000  1.4347590000
O  3.2108300000  -0.1049590000  0.2855580000
H  -0.6915690000  2.1540360000  -0.3073120000
H  1.7394060000  2.1211810000  0.0698050000
H  -0.7491470000  -2.1176860000  -0.3473150000
H  1.6963080000  -2.1510840000  0.0310070000
H  3.5865270000  0.7773740000  0.3448800000