20
charge=0, multiplicity=1, basis=def2-QZVPP, AUX_BASIS_CORR=rimp2-def2-QZVPPD, SCF_ALGORITHM=GDM, xc_grid=000099000590, mem_total=15000, num_basis=816, num_pairs=311180, num_threads=4
H  1.1791540000  -1.9186820000  -0.8050890000
C  0.7785570000  -1.3761660000  0.0545860000
N  1.2765390000  0.0000360000  -0.0000960000
H  1.1792790000  -1.8488180000  0.9545110000
C  -0.7784910000  -1.3761990000  0.0547030000
C  0.7784170000  0.6407890000  -1.2191680000
C  0.7785850000  0.7354180000  1.1644340000
H  -1.1791900000  -1.9187400000  -0.8049090000
H  -1.1790620000  -1.8488610000  0.9546890000
N  -1.2765390000  -0.0000190000  0.0000790000
H  1.1790340000  1.6565380000  -1.2592180000
H  1.1790020000  0.0977580000  -2.0785280000
C  -0.7786120000  0.6407430000  -1.2190680000
C  -0.7784560000  0.7354000000  1.1645300000
H  -1.1792940000  1.6564680000  -1.2590830000
H  -1.1792770000  0.0976730000  -2.0783670000
H  -1.1790320000  0.2621950000  2.0642300000
H  -1.1791090000  1.7511130000  1.1239110000
H  1.1792800000  0.2621940000  2.0640700000
H  1.1792130000  1.7511400000  1.1237970000