33
charge=1, multiplicity=2, basis=def2-QZVPP, AUX_BASIS_CORR=rimp2-def2-QZVPPD, SCF_ALGORITHM=GDM, xc_grid=000099000590, mem_total=30000, num_basis=1449, num_pairs=601367, num_threads=8
N  0.4806990000  2.0426700000  -1.0062570000
C  0.1922090000  -1.4754790000  0.4807150000
H  0.7151670000  1.3240020000  -1.6890490000
C  1.3236360000  -1.0600770000  -0.3880250000
H  -0.3890820000  -2.3004860000  0.0817110000
H  0.3347800000  -1.4816230000  1.5578470000
O  1.1550050000  -0.8792660000  -1.5894120000
N  2.4995520000  -0.8237700000  0.2230530000
H  2.6351640000  -0.9964230000  1.2100680000
C  3.6504240000  -0.3540160000  -0.5072330000
C  4.8020730000  -0.2172810000  0.4537350000
H  3.9257640000  -1.0418650000  -1.3106000000
H  3.4573330000  0.6156680000  -0.9740630000
O  4.7311540000  -0.4584000000  1.6291110000
O  5.9057100000  0.2052020000  -0.1600230000
H  6.6158180000  0.2770040000  0.4947590000
C  -0.5385220000  1.7502200000  -0.3351440000
C  -1.3620890000  0.5184400000  -0.4170320000
O  -0.9875390000  2.5748120000  0.6492510000
N  -2.6336330000  0.6506860000  0.2256720000
H  -0.6714450000  -0.4163100000  0.1842300000
H  -1.4327740000  0.0884690000  -1.4111740000
C  -3.6268310000  -0.2022870000  0.0346220000
C  -4.9542120000  0.0722000000  0.7663420000
O  -3.5897180000  -1.1953870000  -0.6873500000
N  -5.8436590000  -1.0349270000  0.3045760000
H  -5.3800780000  1.0345110000  0.4882920000
H  -4.8372030000  0.0302930000  1.8478240000
H  -5.1788880000  -1.5747990000  -0.3364380000
H  -6.6517220000  -0.7119240000  -0.2277490000
H  -6.1710400000  -1.6384070000  1.0588270000
H  -2.7310440000  1.4415160000  0.8534750000
H  -0.3984870000  3.3417560000  0.6822410000