28
charge=0, multiplicity=1, basis=def2-QZVPP, AUX_BASIS_CORR=rimp2-def2-QZVPPD, SCF_ALGORITHM=GDM, xc_grid=000099000590, mem_total=30000, num_basis=1164, num_pairs=472735, num_threads=8
C  -0.4526690000  -1.6523270000  0.7720170000
C  -1.4383720000  -0.5820740000  0.3612160000
C  -2.5658010000  -0.8979740000  -0.3865570000
C  -1.2348710000  0.7391510000  0.7512360000
C  -3.4847670000  0.0852150000  -0.7326520000
H  -2.7261990000  -1.9221200000  -0.7067290000
C  -2.1452540000  1.7238040000  0.4005150000
H  -0.3478570000  0.9889420000  1.3211480000
C  -3.2756610000  1.3988600000  -0.3403370000
H  -4.3595910000  -0.1751510000  -1.3164960000
H  -1.9750070000  2.7492060000  0.7067740000
O  0.8925020000  -1.2413380000  0.6792280000
C  1.3540260000  -1.1024970000  -0.6534410000
H  0.6995490000  -0.4180220000  -1.2087350000
H  1.3176450000  -2.0802050000  -1.1540300000
H  -3.9872040000  2.1686760000  -0.6136310000
C  2.7691270000  -0.5666090000  -0.6250730000
H  3.1529400000  -0.5623960000  -1.6513580000
H  3.3971030000  -1.2591030000  -0.0552220000
C  2.8723390000  0.8343810000  -0.0306290000
H  2.2261880000  1.5124670000  -0.5992210000
H  2.4793800000  0.8147570000  0.9886020000
C  4.3002930000  1.3668570000  -0.0266460000
H  4.7068980000  1.4183730000  -1.0405480000
H  4.3522110000  2.3694580000  0.4030950000
H  4.9584680000  0.7202170000  0.5598800000
H  -0.6054670000  -1.9164250000  1.8208180000
H  -0.6194090000  -2.5586930000  0.1739350000