49
charge=0, multiplicity=2, basis=def2-QZVPP, mem_total=120000, AUX_BASIS_CORR=rimp2-def2-QZVPPD, SCF_ALGORITHM=GDM, xc_grid=000099000590, num_basis=1981, num_pairs=1187865, num_threads=32
C  1.2346960000  -0.1856920000  -2.3164950000
C  2.4054960000  0.4459790000  -2.0468180000
H  2.5777930000  1.5116150000  -2.0301590000
Si  -0.1215890000  0.0004300000  -0.1453970000
H  0.5063550000  0.4292570000  -2.8327400000
F  3.4512590000  -0.2536440000  -1.5421680000
Si  -0.7628080000  2.2477030000  -0.0536400000
Si  1.3822970000  -0.5383320000  1.5658360000
Si  -1.9877250000  -1.4131650000  -0.1610370000
C  0.6196130000  3.3691740000  -0.6780060000
H  0.3412300000  4.4198760000  -0.5559270000
H  1.5509700000  3.2059390000  -0.1313550000
H  0.8178500000  3.2046120000  -1.7399310000
C  -2.2856850000  2.5409460000  -1.1267860000
H  -2.5639060000  3.5987310000  -1.1190260000
H  -2.1072790000  2.2521680000  -2.1654630000
H  -3.1451250000  1.9706240000  -0.7672640000
C  -1.1763150000  2.7436790000  1.7186090000
H  -1.5113290000  3.7843210000  1.7617730000
H  -1.9714810000  2.1181420000  2.1305070000
H  -0.3068110000  2.6470890000  2.3728160000
C  0.4332520000  -0.7453760000  3.1840420000
H  -0.2804080000  -1.5705410000  3.1241440000
H  1.1200710000  -0.9603260000  4.0082420000
H  -0.1248780000  0.1580330000  3.4395600000
C  2.2945000000  -2.1421290000  1.1926180000
H  1.6032260000  -2.9650940000  0.9981380000
H  2.9413320000  -2.0259400000  0.3209390000
H  2.9241040000  -2.4284200000  2.0401890000
C  2.6479660000  0.8411180000  1.7779970000
H  3.2378620000  0.9760540000  0.8690380000
H  2.1720990000  1.7941170000  2.0201470000
H  3.3412180000  0.6013620000  2.5894480000
C  -3.2088210000  -0.9089580000  1.1870340000
H  -3.5794280000  0.1066710000  1.0301870000
H  -2.7459240000  -0.9437410000  2.1756820000
H  -4.0729190000  -1.5802510000  1.1966430000
C  -2.8728700000  -1.3186840000  -1.8232710000
H  -2.2286430000  -1.6387800000  -2.6453830000
H  -3.7567380000  -1.9631330000  -1.8254280000
H  -3.2029060000  -0.3001840000  -2.0389130000
C  -1.4598890000  -3.1958690000  0.1490610000
H  -2.3243420000  -3.8649430000  0.1109160000
H  -0.7390560000  -3.5396360000  -0.5960160000
H  -0.9981340000  -3.3078970000  1.1327820000
C  1.1737440000  -1.6751740000  -2.5525380000
H  1.7206240000  -2.2244090000  -1.7877280000
H  1.6215460000  -1.9185820000  -3.5210220000
H  0.1451190000  -2.0309180000  -2.5586440000