22
charge=0, multiplicity=2, basis=def2-QZVPP, AUX_BASIS_CORR=rimp2-def2-QZVPPD, SCF_ALGORITHM=GDM, xc_grid=000099000590, mem_total=15000, num_basis=876, num_pairs=315432, num_threads=4
C  -1.6425980000  -0.1310050000  0.2366720000
C  -0.7953110000  -0.2091640000  -1.0176700000
C  0.6223600000  -0.7469260000  -0.8455540000
H  -0.7759920000  0.7879380000  -1.4713150000
H  -1.3307400000  -0.8356630000  -1.7385500000
C  1.5481070000  0.0609010000  0.0121510000
H  1.0628120000  -0.8427170000  -1.8534190000
H  0.5762220000  -1.7721730000  -0.4606290000
C  1.4934140000  1.5503770000  -0.0328410000
C  2.8182750000  -0.5900330000  0.4434880000
N  -1.2449190000  -0.3556880000  1.4182110000
C  -3.0786980000  0.2523500000  0.0095040000
H  -3.1443280000  1.2090720000  -0.5165050000
H  -3.5974860000  0.3282400000  0.9628220000
H  -3.5802800000  -0.4917700000  -0.6156450000
H  2.6667390000  -1.6390470000  0.7111780000
H  3.2638610000  -0.0784600000  1.3000830000
H  1.8610510000  1.9400430000  -0.9965210000
H  2.1175060000  1.9911630000  0.7469010000
H  0.4791670000  1.9350700000  0.0968420000
H  3.5724070000  -0.5750000000  -0.3608730000
H  -0.2498030000  -0.5858820000  1.4336540000