39
charge=0, multiplicity=2, basis=def2-QZVPP, mem_total=120000, AUX_BASIS_CORR=rimp2-def2-QZVPPD, SCF_ALGORITHM=GDM, xc_grid=000099000590, num_basis=1791, num_pairs=1075680, num_threads=32
C  -0.2109340000  1.9790630000  0.8441260000
C  1.0892510000  1.5525150000  1.0459510000
C  1.8477400000  1.1027690000  -0.0657300000
C  1.3274670000  1.2140550000  -1.3873070000
C  0.0337370000  1.6449290000  -1.5503870000
C  -0.7521190000  1.9950580000  -0.4433070000
H  -0.7961940000  2.2945460000  1.6961470000
H  -0.4104790000  1.7180450000  -2.5351340000
O  -2.0200100000  2.3508140000  -0.7225720000
O  3.0528250000  0.6025790000  0.1232490000
H  2.9922440000  -0.4650760000  0.3181170000
C  -0.8580310000  -1.6412990000  -0.5940260000
C  -1.0099770000  -1.4547000000  0.7732530000
C  -2.2519450000  -1.2519570000  1.3391110000
C  -3.3506740000  -1.2319370000  0.4843540000
C  -3.1969090000  -1.4119770000  -0.8886480000
C  -1.9406080000  -1.6246070000  -1.4486940000
C  0.5839070000  -1.8203920000  -0.8998930000
C  0.3262880000  -1.4893670000  1.4192230000
H  -2.3570790000  -1.1144870000  2.4079080000
H  -4.3427740000  -1.0765940000  0.8906840000
H  -4.0704670000  -1.3874210000  -1.5282280000
H  -1.8080210000  -1.7671090000  -2.5134480000
O  0.6207630000  -1.4165080000  2.5772060000
O  1.1245340000  -2.0692300000  -1.9377710000
N  1.2448400000  -1.6306290000  0.3448230000
O  2.5330960000  -1.7110400000  0.4988340000
C  2.2005730000  0.8496430000  -2.5454590000
H  1.7001770000  1.0627620000  -3.4897460000
H  3.1383550000  1.4062170000  -2.5021700000
H  2.4553920000  -0.2113240000  -2.5200400000
C  1.7159750000  1.5471570000  2.4035350000
H  2.6608770000  2.0930130000  2.3849410000
H  1.0533320000  2.0014560000  3.1399760000
H  1.9407850000  0.5287690000  2.7263160000
C  -2.8859340000  2.6949380000  0.3455470000
H  -3.8491510000  2.9097070000  -0.1102940000
H  -2.5274300000  3.5824900000  0.8731900000
H  -2.9899480000  1.8631310000  1.0465580000