18
charge=0, multiplicity=2, basis=def2-QZVPP, AUX_BASIS_CORR=rimp2-def2-QZVPPD, SCF_ALGORITHM=GDM, xc_grid=000099000590, mem_total=7500, num_basis=783, num_pairs=255548, num_threads=2
C  -0.8401510000  0.0000680000  -0.3560160000
C  -0.1331910000  -1.2138220000  -0.2406950000
C  1.2153180000  -1.2318170000  -0.0190520000
C  1.9643810000  -0.0000300000  0.1056570000
C  1.2153880000  1.2318090000  -0.0189580000
C  -0.1331240000  1.2139070000  -0.2406040000
C  -2.3287600000  0.0001090000  -0.5430990000
C  -3.0745800000  -0.0001220000  0.7971530000
H  -2.6233510000  -0.8781860000  -1.1229480000
H  -2.6233440000  0.8786050000  -1.1226440000
H  -2.8174860000  -0.8820820000  1.3871240000
H  -4.1544810000  -0.0000930000  0.6380160000
H  -2.8174810000  0.8816330000  1.3874280000
O  3.1925120000  -0.0000720000  0.3073930000
H  -0.6791290000  -2.1465800000  -0.3344900000
H  1.7711910000  -2.1571060000  0.0681110000
H  -0.6790090000  2.1467040000  -0.3343270000
H  1.7713130000  2.1570600000  0.0682760000