30
charge=0, multiplicity=2, basis=def2-QZVPP, AUX_BASIS_CORR=rimp2-def2-QZVPPD, SCF_ALGORITHM=GDM, xc_grid=000099000590, mem_total=30000, num_basis=1372, num_pairs=518351, num_threads=8
C  -4.8322770000  1.2627420000  -0.5385500000
C  -4.9788770000  -0.1714960000  -1.0517990000
C  -3.4412050000  1.3247480000  0.0874110000
N  -2.8580130000  0.0930300000  -0.1149570000
C  -3.6657820000  -0.8623040000  -0.6924340000
O  -3.3914200000  -2.0173530000  -0.8834890000
O  -2.9509190000  2.2713100000  0.6441810000
Cl  -1.0488290000  -0.3605280000  0.6335200000
H  -4.8878820000  2.0166400000  -1.3242370000
H  -5.5619100000  1.5318190000  0.2255960000
H  -5.7940290000  -0.7239570000  -0.5839140000
H  -5.1157480000  -0.2377840000  -2.1314600000
C  0.5487730000  -1.0011890000  1.8413120000
C  1.7299920000  -0.6906110000  1.0875470000
C  2.2689100000  -1.6148260000  0.1704620000
H  0.2764670000  -2.0447790000  1.9350300000
H  0.3450270000  -0.4004360000  2.7184500000
C  2.3506900000  0.5601930000  1.2066810000
H  1.7889640000  -2.5785870000  0.0479760000
C  3.3833070000  -1.3086980000  -0.5676210000
C  3.4727010000  0.8806730000  0.4676650000
C  3.9954410000  -0.0562820000  -0.4261820000
H  1.9355160000  1.2924500000  1.8891360000
H  3.8091060000  -2.0120570000  -1.2711300000
H  3.9290220000  1.8525970000  0.5862920000
O  5.0809870000  0.1529440000  -1.1943940000
C  5.7405650000  1.4055880000  -1.1227330000
H  5.0717900000  2.2196470000  -1.4142760000
H  6.1299040000  1.5890580000  -0.1177410000
H  6.5673500000  1.3467090000  -1.8257940000