36
charge=0, multiplicity=2, basis=def2-QZVPP, mem_total=60000, AUX_BASIS_CORR=rimp2-def2-QZVPPD, SCF_ALGORITHM=GDM, xc_grid=000099000590, num_basis=1552, num_pairs=777636, num_threads=16
N  1.0057030000  1.5881200000  0.4524610000
C  0.0144090000  1.8582090000  1.3956290000
C  1.1361630000  2.0445130000  -0.8668750000
O  1.6716960000  1.3664960000  -1.7051330000
O  -0.6884590000  2.8368670000  1.2937300000
C  0.6214940000  3.4329640000  -1.1303140000
C  -0.0642730000  0.8895900000  2.5385920000
F  1.4338160000  0.0646960000  0.4977220000
C  1.7963780000  -1.9194440000  -0.0304620000
C  0.5770440000  -2.0529470000  -0.8961270000
C  -0.7067680000  -1.5696780000  -0.2458730000
O  -1.1340500000  -1.9950240000  0.7970460000
C  -3.0182640000  -0.0644450000  -0.1389640000
C  -4.1007120000  -1.1075480000  -0.3604660000
C  1.8383910000  -2.5955440000  1.2933020000
C  3.0776980000  -1.6711880000  -0.7448840000
H  0.7344730000  -1.5231880000  -1.8358780000
H  -2.6830880000  -0.0585740000  0.8971630000
H  -3.3673560000  0.9390100000  -0.3840470000
H  -3.7388630000  -2.1011610000  -0.0959540000
H  -4.9666060000  -0.8847760000  0.2677930000
H  -4.4293470000  -1.1219710000  -1.4008270000
H  0.8899820000  -2.5252020000  1.8222970000
H  2.6380940000  -2.1846320000  1.9115180000
H  2.0524270000  -3.6667210000  1.1542830000
H  3.3809310000  -2.5686260000  -1.3050110000
H  3.8801480000  -1.4349130000  -0.0448230000
H  2.9722710000  -0.8483190000  -1.4527390000
H  0.9280160000  4.1319410000  -0.3539870000
H  -0.4685940000  3.4210680000  -1.1312300000
H  0.9992090000  3.7384350000  -2.1038770000
H  -0.6998280000  1.3273210000  3.3049120000
H  0.9273420000  0.6744300000  2.9350170000
H  -0.4906720000  -0.0560740000  2.2010210000
H  0.4109830000  -3.1145150000  -1.1348400000
S  -1.5460400000  -0.3110150000  -1.1790010000