20
charge=0, multiplicity=2, basis=def2-QZVPP, AUX_BASIS_CORR=rimp2-def2-QZVPPD, SCF_ALGORITHM=GDM, xc_grid=000099000590, mem_total=15000, num_basis=843, num_pairs=290726, num_threads=4
C  -1.6076950000  0.0000000000  -0.0000440000
C  -2.3675230000  -1.2901360000  -0.0001010000
C  -2.3675250000  1.2901350000  -0.0000800000
C  -0.1849390000  0.0000000000  0.0000030000
C  0.5580680000  -1.2062280000  0.0000930000
C  1.9388700000  -1.2006350000  0.0001390000
C  2.6439950000  0.0000000000  0.0000920000
C  1.9388710000  1.2006350000  -0.0000030000
C  0.5580680000  1.2062290000  -0.0000450000
H  0.0376530000  -2.1546750000  0.0001350000
H  2.4762220000  -2.1418630000  0.0002130000
H  3.7268990000  -0.0000010000  0.0001270000
H  2.4762240000  2.1418630000  -0.0000460000
H  0.0376540000  2.1546760000  -0.0001280000
H  -3.4429130000  1.1145680000  0.0001510000
H  -2.1326660000  1.9024300000  -0.8783390000
H  -2.1323220000  1.9026890000  0.8778990000
H  -3.4429110000  -1.1145700000  -0.0002580000
H  -2.1326160000  -1.9025230000  0.8780790000
H  -2.1323650000  -1.9025960000  -0.8781590000