33
charge=0, multiplicity=2, basis=def2-QZVPP, mem_total=30000, AUX_BASIS_CORR=rimp2-def2-QZVPPD, SCF_ALGORITHM=GDM, xc_grid=000099000590, num_basis=1341, num_pairs=647835, num_threads=8
C  0.8155610000  0.3927930000  -0.7701420000
C  2.0181810000  -0.1184190000  -1.5103580000
C  2.9232500000  -0.8964080000  -0.5517580000
H  2.5691830000  0.7285450000  -1.9282150000
H  1.7042970000  -0.7603270000  -2.3378550000
C  3.0637460000  -0.0470090000  0.7045540000
H  3.8938400000  -1.1157740000  -1.0027660000
H  2.4430670000  -1.8463530000  -0.3095800000
C  1.7042950000  0.3727100000  1.2060280000
H  3.6633180000  0.8455870000  0.4971760000
H  3.5775200000  -0.6014900000  1.4958370000
C  1.4897890000  1.5969760000  1.7916830000
H  0.5863350000  1.8072010000  2.3501720000
H  2.1927580000  2.4116450000  1.6570020000
H  1.0630710000  -0.4451990000  1.5236980000
C  -0.3023150000  -0.5496900000  -0.5738900000
H  0.5714670000  1.4371430000  -0.9041790000
O  -0.1410610000  -1.7557960000  -0.7517020000
N  -1.5082800000  -0.0587670000  -0.1540510000
C  -2.3418570000  2.0682710000  -1.1420270000
C  -1.7944430000  1.3483990000  0.0853570000
H  -2.5846760000  3.1066030000  -0.9041940000
H  -3.2489960000  1.5832500000  -1.5080990000
H  -1.6101820000  2.0634830000  -1.9523080000
H  -2.5206920000  1.3983630000  0.9008600000
H  -0.8992780000  1.8455950000  0.4534870000
C  -2.6165540000  -1.5802890000  1.4582440000
C  -2.5983760000  -1.0065490000  0.0472860000
H  -1.6959270000  -2.1339480000  1.6462620000
H  -3.4593830000  -2.2636880000  1.5852260000
H  -2.7069690000  -0.7894690000  2.2073330000
H  -3.5355490000  -0.4879150000  -0.1694180000
H  -2.4844270000  -1.8102220000  -0.6783320000