26
charge=0, multiplicity=2, basis=def2-QZVPP, mem_total=30000, AUX_BASIS_CORR=rimp2-def2-QZVPPD, SCF_ALGORITHM=GDM, xc_grid=000099000590, num_basis=1198, num_pairs=431802, num_threads=8
C  -4.2755680000  -0.7654420000  -0.5355880000
C  -4.2755680000  0.7654420000  -0.5355880000
C  -2.8504560000  -1.1687550000  -0.1695230000
N  -2.1245560000  0.0000000000  -0.0603150000
C  -2.8504560000  1.1687550000  -0.1695230000
O  -2.4389640000  2.2865550000  -0.0125030000
O  -2.4389640000  -2.2865550000  -0.0125030000
Cl  -0.2256790000  0.0000000000  0.5133760000
H  -4.5159700000  -1.2022980000  -1.5051620000
H  -4.9525730000  -1.2038210000  0.1979020000
H  -4.9525730000  1.2038210000  0.1979020000
H  -4.5159700000  1.2022980000  -1.5051620000
C  1.5229350000  0.0000000000  1.6767260000
C  2.5957300000  0.0000000000  0.7114940000
C  3.1141070000  -1.2088560000  0.2223960000
H  1.3580680000  -0.9117090000  2.2367770000
H  1.3580680000  0.9117100000  2.2367770000
C  3.1141070000  1.2088570000  0.2223960000
H  2.7028910000  -2.1450430000  0.5813410000
C  4.1333180000  -1.2063460000  -0.7103570000
C  4.1333180000  1.2063460000  -0.7103570000
C  4.6455210000  0.0000000000  -1.1782680000
H  2.7028920000  2.1450440000  0.5813400000
H  4.5311400000  -2.1435420000  -1.0791190000
H  4.5311400000  2.1435420000  -1.0791190000
H  5.4428230000  0.0000000000  -1.9114660000