14
charge=0, multiplicity=2, basis=def2-QZVPP, AUX_BASIS_CORR=rimp2-def2-QZVPPD, SCF_ALGORITHM=GDM, xc_grid=000099000590, mem_total=3750, num_basis=555, num_pairs=147776, num_threads=1
C  -1.3247640000  -0.8719020000  -0.0685850000
H  -0.1167020000  -1.2771270000  -0.0217260000
H  -1.6062030000  -1.1054320000  -1.0946670000
H  -1.8755610000  -1.4649530000  0.6587180000
C  -1.1695310000  0.5986080000  0.2343730000
H  -2.0001940000  1.1704840000  -0.1942900000
C  1.2945330000  0.2525620000  0.2300880000
H  2.2465960000  0.5577220000  -0.2203120000
O  1.1172650000  -1.0995270000  -0.0882910000
H  -1.1932840000  0.7648670000  1.3151660000
H  1.3708680000  0.3965270000  1.3176270000
C  0.1593770000  1.1128110000  -0.3254730000
H  0.3205180000  2.1606300000  -0.0593980000
H  0.1581530000  1.0410280000  -1.4172120000