13
charge=0, multiplicity=2, basis=def2-QZVPP, AUX_BASIS_CORR=rimp2-def2-QZVPPD, SCF_ALGORITHM=GDM, xc_grid=000099000590, mem_total=3750, num_basis=552, num_pairs=132633, num_threads=1
C  2.1255040000  -0.9269900000  -0.0000120000
C  1.0876620000  0.0770390000  0.0000010000
O  -0.1457990000  -0.4660460000  0.0000510000
C  -1.2445910000  0.4594770000  0.0000440000
C  -2.5187660000  -0.3485130000  -0.0000460000
O  1.2872320000  1.2731020000  -0.0000300000
H  3.1533970000  -0.5964000000  -0.0000260000
H  1.8774450000  -1.9784460000  -0.0000160000
H  -1.1635890000  1.0993360000  -0.8808480000
H  -1.1636650000  1.0992520000  0.8810060000
H  -2.5762880000  -0.9835840000  -0.8853350000
H  -3.3812160000  0.3209380000  -0.0000820000
H  -2.5763940000  -0.9836260000  0.8852070000