22
charge=0, multiplicity=1, basis=def2-QZVPP, AUX_BASIS_CORR=rimp2-def2-QZVPPD, SCF_ALGORITHM=GDM, xc_grid=000099000590, mem_total=15000, num_basis=984, num_pairs=369920, num_threads=4
N  2.0013160000  0.4033720000  -0.6107980000
C  1.4703240000  1.6671010000  -0.1260340000
C  -0.0539700000  1.6236930000  -0.1027940000
H  1.8740590000  1.8489380000  0.8700420000
H  1.7780610000  2.4662080000  -0.7959960000
O  -0.7316020000  2.1654300000  -0.9534550000
N  -0.5719400000  0.8846570000  0.9160860000
H  0.0935330000  0.3318360000  1.4490570000
C  -1.9256580000  0.4190870000  0.8270170000
C  -2.0515720000  -0.7906000000  -0.0785800000
H  -2.3069590000  0.1537540000  1.8142400000
H  -2.5624070000  1.2088060000  0.4276720000
O  -1.1448310000  -1.3466300000  -0.6341960000
O  -3.3303070000  -1.1855240000  -0.1814850000
H  -3.3568370000  -1.9534030000  -0.7694590000
C  2.0822740000  -0.6878940000  0.1939140000
C  2.4431070000  -1.9816400000  -0.4811810000
O  1.8468110000  -0.6207480000  1.3924960000
H  2.0330130000  0.2622670000  -1.6078550000
H  2.9919850000  -1.8367420000  -1.4121500000
H  1.5112690000  -2.5088670000  -0.6986370000
H  3.0310530000  -2.5877090000  0.2051200000