29
charge=1, multiplicity=1, basis=def2-QZVPP, mem_total=30000, AUX_BASIS_CORR=rimp2-def2-QZVPPD, SCF_ALGORITHM=GDM, xc_grid=000099000590, num_basis=1248, num_pairs=551521, num_threads=8
C  2.8469210000  -0.6630190000  1.1956580000
C  2.2273380000  -1.0987710000  -0.1418660000
C  2.6098260000  1.0532120000  -0.4752740000
C  3.1214540000  0.8503400000  0.9570030000
H  2.1788690000  -0.8533140000  2.0350110000
H  3.7641540000  -1.2266120000  1.3658690000
H  2.5924540000  1.4924810000  1.6585180000
H  4.1842440000  1.0817080000  1.0183210000
C  2.9940630000  -0.2622520000  -1.1629240000
H  2.6213830000  -0.3583800000  -2.1831770000
H  4.0630440000  -0.4663570000  -1.1379020000
H  2.1075260000  -2.1649790000  -0.3110030000
H  2.8922590000  1.9852640000  -0.9561950000
N  1.1267220000  0.9592700000  -0.4091630000
N  0.8973910000  -0.4166730000  -0.2162440000
C  -0.2510010000  -0.9750810000  -0.0469400000
C  -1.5622910000  -0.3836010000  -0.0126200000
C  -1.8203880000  0.9946220000  0.0797290000
C  -2.6381350000  -1.2865300000  -0.0332760000
C  -3.1257890000  1.4419780000  0.1439600000
H  -1.0073030000  1.7020190000  0.1388010000
C  -3.9391560000  -0.8266650000  0.0119700000
H  -2.4454330000  -2.3518010000  -0.0875460000
C  -4.1825860000  0.5385610000  0.1002570000
H  -3.3246760000  2.5025200000  0.2279730000
H  -4.7630350000  -1.5277200000  -0.0129480000
H  -5.2020130000  0.9017840000  0.1417080000
H  0.6821520000  1.2409390000  -1.2819060000
H  -0.1939460000  -2.0525060000  0.0682730000