44
charge=0, multiplicity=1, basis=def2-QZVPP, mem_total=120000, AUX_BASIS_CORR=rimp2-def2-QZVPPD, SCF_ALGORITHM=GDM, xc_grid=000099000590, num_basis=1860, num_pairs=1112692, num_threads=32
C  2.0157260000  -1.0550150000  0.3098050000
C  0.5930810000  -1.2069750000  -0.1576000000
C  -0.3426860000  0.7102030000  0.7347760000
C  2.6313630000  0.2303560000  -0.2405600000
H  2.0355430000  -1.0193150000  1.4032860000
C  1.9930170000  1.5229390000  0.2568200000
H  3.6885440000  0.2536280000  0.0296680000
H  2.5765880000  0.2361710000  -1.3331640000
C  0.5019240000  1.6690630000  -0.0548880000
H  2.1209490000  1.5832280000  1.3498520000
C  -0.2702330000  -2.2139470000  0.2149700000
C  -1.6219690000  -2.1148520000  -0.1841570000
C  -1.7120700000  0.5651710000  0.6262910000
C  -2.0704010000  -1.0044890000  -0.8516180000
C  0.1340170000  -3.2604540000  1.2186790000
H  -0.7197990000  -3.8687050000  1.5192270000
H  0.5585210000  -2.8031660000  2.1170690000
H  0.9068750000  -3.9157360000  0.8146430000
H  0.1800000000  2.6846900000  0.1870830000
H  0.3415490000  1.5621020000  -1.1328700000
C  -3.4849520000  -0.5856150000  -1.0533960000
H  -3.8545350000  -0.8046410000  -2.0567820000
H  -4.1620340000  -1.0409090000  -0.3273230000
C  -2.5418760000  1.4561000000  -0.2534450000
O  2.8332940000  -2.1906600000  0.0214360000
O  2.7437950000  2.5652720000  -0.3427420000
O  -2.4044070000  2.6432640000  -0.3459630000
O  -3.5451260000  0.8482540000  -0.9372050000
C  2.9136580000  -2.5704200000  -1.3357840000
H  3.3780080000  -1.7963770000  -1.9555830000
H  3.5389000000  -3.4614590000  -1.3688700000
H  1.9280900000  -2.8139980000  -1.7478150000
C  2.6501750000  3.8155490000  0.2998090000
H  2.9234980000  3.7352000000  1.3597790000
H  1.6478720000  4.2504810000  0.2257910000
H  3.3546280000  4.4806440000  -0.1975490000
C  -2.4423210000  0.0038660000  1.8271230000
H  -2.4976680000  0.7564990000  2.6182110000
H  -1.9002000000  -0.8586320000  2.2191350000
H  -3.4619850000  -0.3090520000  1.6015780000
H  0.3730500000  -0.6792600000  -1.0744270000
H  0.0778790000  0.4076410000  1.6886280000
H  -1.3924930000  -0.4953180000  -1.5272070000
H  -2.3409450000  -2.7816290000  0.2824780000