56
charge=0, multiplicity=1, basis=def2-QZVPP, mem_total=240000, AUX_BASIS_CORR=rimp2-def2-QZVPPD, SCF_ALGORITHM=GDM, xc_grid=000099000590, num_basis=2409, num_pairs=1629047, num_threads=64
C  0.6501210000  -1.1046390000  -0.2273120000
C  1.6836420000  -1.4776530000  0.5203840000
C  -0.0833050000  0.1999080000  -0.0387080000
C  -1.4019010000  0.1533120000  -0.8453860000
C  -2.1209640000  1.5085080000  -0.9292020000
C  -2.4526940000  -0.7706660000  -0.2220840000
H  -1.1520560000  -0.2065640000  -1.8460340000
C  3.1808370000  0.7094320000  -0.7338190000
C  2.2129580000  1.4195510000  -0.1560850000
H  2.9636700000  0.1508950000  -1.6384800000
C  4.5478010000  0.4466000000  -0.1921760000
C  0.8109620000  1.3220970000  -0.7271380000
C  0.0680750000  2.6358490000  -0.7449280000
C  -1.2529380000  2.7187060000  -0.8088390000
C  -3.2833340000  1.4124260000  0.0587250000
H  -2.6360390000  1.5767400000  -1.8972320000
N  -3.3705110000  0.1139090000  0.4815020000
H  -1.9914730000  -1.4936640000  0.4582280000
C  -3.3993600000  -1.5462330000  -1.1300360000
C  2.7395990000  -2.3884480000  0.0740870000
H  1.8933020000  -0.9245600000  1.4291530000
C  4.5540190000  -0.7768740000  0.7565580000
H  4.9045150000  1.2923830000  0.4088170000
O  5.4271970000  0.2249110000  -1.2786390000
C  4.0294740000  -2.0552720000  0.1546840000
H  3.9597800000  -0.4982020000  1.6335580000
O  5.9228540000  -0.9174110000  1.1407000000
H  0.4698040000  -1.6222040000  -1.1679090000
C  -0.3372690000  0.5206760000  1.4389360000
C  2.4422600000  2.2128210000  1.1078700000
H  6.2606230000  -0.0838690000  -0.9057340000
H  6.0294730000  -1.7221320000  1.6542840000
H  2.4571600000  -3.2989160000  -0.4455070000
H  4.7792840000  -2.7028600000  -0.2886200000
C  -4.6688830000  -0.5356310000  0.7150490000
O  -4.0567760000  2.2986510000  0.3457220000
H  3.3537710000  2.8097050000  1.0366170000
H  2.5516520000  1.5676430000  1.9845200000
H  1.6140840000  2.8899800000  1.3147990000
H  -0.7991080000  1.4994730000  1.5610370000
H  0.5862430000  0.5257480000  2.0124780000
H  -0.9955630000  -0.2210740000  1.8900830000
C  -4.6013870000  -1.7814210000  -0.2028960000
O  -2.7590380000  -2.7198250000  -1.5880110000
H  -3.6871080000  -0.9139520000  -1.9809460000
H  -5.4380760000  0.1643680000  0.3811810000
C  -4.9007150000  -0.8649370000  2.1797780000
H  -4.3949100000  -2.6778480000  0.3883080000
H  -5.5347920000  -1.9421720000  -0.7444030000
H  -5.8522170000  -1.3866970000  2.3091240000
H  -4.9239780000  0.0487270000  2.7746630000
H  -4.1037760000  -1.5079260000  2.5612640000
H  -3.3283880000  -3.1767700000  -2.2118290000
H  -1.7568470000  3.6785850000  -0.8094110000
H  0.6583820000  3.5453630000  -0.7101200000
H  0.9302700000  0.9931470000  -1.7653530000