19
charge=1, multiplicity=2, basis=def2-QZVPP, AUX_BASIS_CORR=rimp2-def2-QZVPPD, SCF_ALGORITHM=GDM, xc_grid=000099000590, mem_total=7500, num_basis=813, num_pairs=262450, num_threads=2
N  0.5304400000  1.5786350000  0.3203740000
C  0.9383650000  0.2298240000  0.7426080000
H  0.7313070000  2.2962720000  1.0186380000
H  -0.5012080000  1.5862110000  0.0906670000
C  2.1606020000  -0.1577140000  -0.0510770000
H  0.9430830000  0.0913140000  1.8195540000
H  -0.0493740000  -0.5621030000  0.2871430000
O  2.4528970000  0.5392120000  -1.0082420000
N  2.8040390000  -1.2707420000  0.3171930000
H  2.5742280000  -1.7846570000  1.1525710000
C  -1.1213930000  -1.1394820000  -0.3146120000
C  -2.2295280000  -0.1702520000  -0.1187430000
H  -0.7744960000  -1.1887700000  -1.3455810000
H  -1.2579970000  -2.1115070000  0.1496860000
O  -2.0583110000  1.0373100000  -0.0835840000
O  -3.4095160000  -0.7294010000  0.0209700000
H  3.6151080000  -1.5552450000  -0.2140500000
H  -4.0918230000  -0.0456810000  0.1276490000
H  1.1009860000  1.7676800000  -0.5314560000