15
charge=-1, multiplicity=1, basis=def2-QZVPP, mem_total=7500, AUX_BASIS_CORR=rimp2-def2-QZVPPD, SCF_ALGORITHM=GDM, xc_grid=000099000590, num_basis=693, num_pairs=205452, num_threads=2
O  -2.9439950000  -0.9740480000  -0.3971660000
C  -2.0684270000  -0.1937570000  0.0137850000
O  -2.2026260000  0.8610640000  0.6812500000
C  -0.6102050000  -0.6003190000  -0.3592380000
C  0.4480060000  0.3366900000  0.2229120000
H  -0.5289290000  -0.6054610000  -1.4496990000
H  -0.4527000000  -1.6216010000  -0.0112150000
N  0.3132830000  1.6621320000  -0.3556130000
C  1.8560780000  -0.1598580000  0.0399790000
H  0.2934800000  0.3373540000  1.3156200000
O  2.8049580000  0.4857300000  -0.3316120000
O  2.0139730000  -1.4557110000  0.4103500000
H  2.9531330000  -1.6484080000  0.2932050000
H  -0.6117860000  1.9812340000  -0.0702260000
H  1.0226340000  2.2891410000  0.0043980000