37
charge=0, multiplicity=1, basis=def2-QZVPP, mem_total=60000, AUX_BASIS_CORR=rimp2-def2-QZVPPD, SCF_ALGORITHM=GDM, xc_grid=000099000590, num_basis=1542, num_pairs=803988, num_threads=16
C  0.7666600000  0.3159900000  1.0028890000
H  -0.1086350000  0.6457840000  1.5693880000
B  0.4644750000  0.0486280000  -0.5062660000
C  1.2271810000  -1.0378540000  1.5989680000
H  0.3544120000  -1.7005500000  1.6283790000
H  1.5321610000  -0.8962190000  2.6416940000
C  1.8248790000  1.4429240000  1.0644650000
H  1.3335230000  2.3722290000  0.7548460000
C  -3.7302190000  -2.5079100000  0.2107520000
H  -4.5983620000  -2.1625190000  0.7620160000
H  -3.6544320000  -3.5719740000  0.0287610000
C  -2.7980080000  -1.6624200000  -0.2267820000
C  -2.8321400000  -0.2246520000  -0.0281720000
H  -1.9484840000  -2.0524340000  -0.7779620000
H  2.1407140000  1.5977290000  2.1022070000
C  -1.8526860000  0.5896870000  -0.4370850000
O  -0.7635090000  0.1464640000  -1.1096890000
O  -1.7857400000  1.9233840000  -0.2951710000
C  -2.8566960000  2.5712050000  0.3691990000
H  -3.7958290000  2.4191930000  -0.1688300000
H  -2.9568930000  2.2040750000  1.3940910000
H  -2.6066360000  3.6289220000  0.3797940000
C  3.0659280000  1.2257470000  0.1843270000
H  3.6102430000  2.1717840000  0.1088590000
H  3.7510900000  0.5376570000  0.6781510000
C  1.7125760000  -0.4167700000  -1.3151920000
H  1.4796540000  -0.5919450000  -2.3693930000
C  2.7577770000  0.7214710000  -1.2342180000
H  2.3808730000  1.5609690000  -1.8297350000
H  3.6896640000  0.4053080000  -1.7159510000
C  2.1735920000  -1.7580020000  -0.6943070000
H  3.1056740000  -2.0859340000  -1.1677010000
H  1.4244550000  -2.5167690000  -0.9491470000
C  2.3563800000  -1.7431060000  0.8316630000
H  2.4273760000  -2.7757110000  1.1860010000
H  3.3124310000  -1.2854690000  1.0829810000
H  -3.6927240000  0.1960870000  0.4727110000