25
charge=1, multiplicity=1, basis=def2-QZVPP, AUX_BASIS_CORR=rimp2-def2-QZVPPD, SCF_ALGORITHM=GDM, xc_grid=000099000590, mem_total=15000, num_basis=1074, num_pairs=428456, num_threads=4
C  2.9798080000  1.1882820000  0.0681520000
C  1.6013780000  1.2228880000  0.0363210000
C  0.8689120000  0.0240010000  -0.0201310000
C  1.5523320000  -1.2062020000  -0.0472980000
C  2.9298010000  -1.2294760000  -0.0214570000
C  3.6424560000  -0.0347730000  0.0370850000
H  3.5432280000  2.1107630000  0.1145760000
H  1.0999150000  2.1806150000  0.0608250000
H  0.9918960000  -2.1296560000  -0.0901630000
H  3.4557950000  -2.1747290000  -0.0456050000
H  4.7252740000  -0.0572280000  0.0581200000
C  -0.5677310000  0.0442730000  -0.0384310000
C  -1.3618690000  1.3089080000  -0.0086550000
C  -2.8477230000  1.1269900000  -0.3019110000
C  -2.5999630000  -1.3144970000  -0.0777570000
C  -3.3596800000  -0.1131610000  0.4155320000
H  -3.0070530000  1.0279630000  -1.3789770000
H  -3.3870750000  2.0180910000  0.0165050000
H  -2.8200760000  -1.5555810000  -1.1178250000
H  -2.7287290000  -2.2040100000  0.5332070000
O  -1.1394750000  -1.0970450000  -0.0526410000
H  -4.4200170000  -0.2800320000  0.2191410000
H  -3.2457300000  -0.0095380000  1.4984090000
H  -1.2166320000  1.7241370000  0.9969560000
H  -0.9013320000  2.0221520000  -0.6927430000