18
charge=0, multiplicity=1, basis=def2-QZVPP, AUX_BASIS_CORR=rimp2-def2-QZVPPD, SCF_ALGORITHM=GDM, xc_grid=000099000590, mem_total=7500, num_basis=702, num_pairs=203797, num_threads=2
C  -3.0661000000  -0.1766510000  -0.4390920000
C  -2.0315140000  -0.2034880000  0.3886830000
C  -0.7707960000  0.5870690000  0.2212630000
C  0.4706550000  -0.2977150000  0.0908950000
C  2.9975100000  -0.3852700000  -0.1662210000
C  1.7640390000  0.5003090000  -0.0326720000
H  -3.0673940000  0.4553490000  -1.3215400000
H  -3.9488530000  -0.7805290000  -0.2666790000
H  -2.0714370000  -0.8543770000  1.2604980000
H  -0.8576560000  1.2349620000  -0.6564950000
H  -0.6420730000  1.2470300000  1.0877950000
H  0.5360180000  -0.9618510000  0.9606530000
H  0.3558140000  -0.9491260000  -0.7821130000
H  2.9292410000  -1.0232040000  -1.0513680000
H  3.9098330000  0.2084300000  -0.2539470000
H  3.1082450000  -1.0388630000  0.7031580000
H  1.8709490000  1.1504240000  0.8425150000
H  1.6945460000  1.1662280000  -0.8996130000