36
charge=0, multiplicity=1, basis=def2-QZVPP, AUX_BASIS_CORR=rimp2-def2-QZVPPD, SCF_ALGORITHM=GDM, xc_grid=000099000590, mem_total=60000, num_basis=1620, num_pairs=955894, num_threads=16
C  -1.0790700000  0.7334470000  0.1706440000
C  -0.3434920000  0.8453730000  -1.0950710000
C  -0.4328300000  0.7672790000  1.4287700000
C  0.7016860000  1.8117350000  -1.2904980000
C  0.7897330000  1.3453870000  1.7732010000
C  1.6027350000  2.2943160000  -0.3912240000
C  1.6973390000  2.0143040000  0.9862360000
H  0.8166270000  2.1470330000  -2.3164210000
H  2.3529600000  2.9723260000  -0.7859500000
H  2.5537820000  2.4388920000  1.4990140000
H  1.0359350000  1.2831420000  2.8284380000
C  0.4687990000  -1.7513370000  0.8344060000
H  -1.0427990000  0.4486130000  2.2656460000
C  0.3892080000  -0.9502330000  -1.3460760000
H  -1.0076290000  0.8126700000  -1.9502520000
C  1.2950090000  -1.1283660000  -0.1750920000
C  -0.7279300000  -1.7938840000  -1.0905920000
H  0.7723510000  -0.8333030000  -2.3502910000
C  -0.6906280000  -2.2211650000  0.2357990000
H  0.7620650000  -1.9474330000  1.8534980000
H  -1.5248300000  -1.9920600000  -1.7928380000
H  -1.4690490000  -2.7816750000  0.7333880000
C  2.6112570000  -0.8452510000  -0.0989550000
C  3.4260270000  -1.1324110000  1.1252000000
C  3.3973240000  -0.3385220000  -1.2683530000
H  2.7712860000  0.0022290000  -2.0885780000
H  4.0475500000  -1.1365700000  -1.6433780000
H  4.0485740000  0.4848020000  -0.9674050000
H  2.8225510000  -1.4071170000  1.9865530000
H  4.0264700000  -0.2591150000  1.3902440000
H  4.1267430000  -1.9497050000  0.9253770000
C  -2.4171950000  0.3572380000  0.0919200000
C  -3.1054820000  0.2770210000  -1.1460830000
N  -3.6457930000  0.2131340000  -2.1620820000
C  -3.1600790000  0.0362090000  1.2579750000
N  -3.7295010000  -0.2430730000  2.2191830000