18
charge=0, multiplicity=1, basis=def2-QZVPP, AUX_BASIS_CORR=rimp2-def2-QZVPPD, SCF_ALGORITHM=GDM, xc_grid=000099000590, mem_total=7500, num_basis=796, num_pairs=259218, num_threads=2
C  1.9860040000  -0.0000230000  0.8311220000
C  0.5298090000  -0.0000160000  0.5038110000
C  -0.1619020000  -1.1960270000  0.3444990000
C  -0.1618950000  1.1960070000  0.3445250000
H  0.3640540000  -2.1377990000  0.4562570000
C  -1.5125620000  -1.1945260000  0.0350570000
C  -1.5125520000  1.1945220000  0.0350830000
C  -2.2110470000  0.0000010000  -0.1223310000
H  0.3640690000  2.1377720000  0.4563030000
H  -2.0339680000  -2.1374190000  -0.0875670000
H  -2.0339510000  2.1374210000  -0.0875210000
C  -3.6838510000  0.0000170000  -0.4269300000
H  -3.9704440000  0.8835090000  -0.9991950000
H  -3.9705370000  -0.8836720000  -0.9988430000
H  -4.2713610000  0.0002340000  0.4956100000
H  2.2764800000  -0.8872920000  1.3873190000
H  2.2764790000  0.8872160000  1.3873660000
Cl  3.0215980000  0.0000180000  -0.6634560000