41
charge=0, multiplicity=1, basis=def2-QZVPP, AUX_BASIS_CORR=rimp2-def2-QZVPPD, SCF_ALGORITHM=GDM, xc_grid=000099000590, mem_total=120000, num_basis=1770, num_pairs=1071973, num_threads=32
C  -2.5734660000  -0.1498380000  -1.3282180000
C  -1.1913200000  0.4537130000  -1.0998910000
C  -0.4085740000  -0.1575160000  0.1005510000
C  -1.3314800000  -0.3691600000  1.3248300000
C  -2.7438950000  -0.8451950000  1.0665750000
C  -3.4544010000  -0.1260800000  -0.0821370000
C  0.6175560000  0.9115580000  0.4272470000
C  0.1326250000  2.2136140000  -0.1204380000
C  -1.1740960000  1.9624950000  -0.8445720000
O  0.6755140000  3.2831500000  -0.0054570000
C  0.1304330000  -1.5737020000  -0.2008990000
C  1.0717060000  -1.7432320000  -1.4075790000
C  2.2395320000  -0.8151000000  -1.5546060000
N  3.1745940000  -0.6218060000  -0.6785550000
O  4.1229920000  0.2140050000  -0.8260280000
C  1.7633180000  0.8771880000  1.1023190000
C  2.4500720000  -0.3156560000  1.6954030000
C  3.1255480000  -1.2526910000  0.6489610000
O  -0.9108900000  -0.2408050000  2.4470370000
C  -4.8229910000  -0.7416590000  -0.3472540000
H  -0.5886120000  0.2765230000  -1.9951440000
H  -1.9813460000  2.2731520000  -0.1725980000
H  -1.2483930000  2.5707560000  -1.7456160000
H  -2.4714280000  -1.1882000000  -1.6657300000
H  -3.0680240000  0.3861320000  -2.1436400000
H  -0.7197250000  -2.2368300000  -0.3808540000
H  0.6011790000  -1.9539260000  0.7041640000
H  -3.2933500000  -0.7603920000  2.0049720000
H  -2.6839200000  -1.9151110000  0.8283800000
H  -3.6097300000  0.9158260000  0.2175900000
H  -4.7252180000  -1.7863650000  -0.6574050000
H  -5.3480690000  -0.2050970000  -1.1405510000
H  -5.4494460000  -0.7158770000  0.5470460000
H  1.4151940000  -2.7845620000  -1.3994480000
H  0.4905940000  -1.6452130000  -2.3256800000
H  1.7345650000  -0.8957380000  2.2794190000
H  3.2168940000  0.0355360000  2.3833810000
H  2.6111150000  -2.2071130000  0.5717450000
H  4.1641400000  -1.4330370000  0.9101150000
H  2.3667270000  -0.2298600000  -2.4554880000
H  2.2803660000  1.8288170000  1.1790550000