11
charge=0, multiplicity=1, basis=def2-QZVPP, AUX_BASIS_CORR=rimp2-def2-QZVPPD, SCF_ALGORITHM=GDM, xc_grid=000099000590, mem_total=3750, num_basis=465, num_pairs=102126, num_threads=1
N  0.6807980000  1.3510690000  -0.0441140000
C  0.5656960000  0.0995560000  -0.0191990000
C  -0.7039000000  -0.7166240000  -0.0789700000
O  1.6500350000  -0.7011940000  0.0636990000
N  -1.8782400000  0.1288590000  0.0391760000
H  -0.6317650000  -1.5033860000  0.6805550000
H  -0.7154940000  -1.2242850000  -1.0464370000
H  -2.1525910000  0.2739320000  1.0020100000
H  -2.6696330000  -0.2407720000  -0.4674070000
H  2.4247550000  -0.1234900000  0.0723420000
H  -0.2442410000  1.7704620000  -0.1270720000