25
charge=0, multiplicity=2, basis=def2-QZVPP, AUX_BASIS_CORR=rimp2-def2-QZVPPD, SCF_ALGORITHM=GDM, xc_grid=000099000590, mem_total=30000, num_basis=1195, num_pairs=431390, num_threads=8
C  -4.6438140000  -0.6280860000  -0.0667600000
C  -4.6147540000  0.7203710000  0.2337290000
C  -3.3960080000  1.3754640000  0.2208330000
C  -2.2199890000  0.6931120000  -0.1093030000
C  -2.2917320000  -0.6710940000  -0.4160730000
C  -3.5032190000  -1.3392970000  -0.3855970000
S  -0.6936200000  1.5599910000  -0.1501250000
H  -5.5336080000  1.2347210000  0.4827260000
H  -3.3449260000  2.4267590000  0.4732720000
H  -1.3890220000  -1.2103950000  -0.6713000000
H  -3.5746860000  -2.3949710000  -0.6121120000
H  0.1678840000  0.3928940000  0.3433790000
O  0.9113520000  -0.4689260000  0.9025980000
C  2.1440000000  -0.3584360000  0.5174080000
C  2.4792470000  -0.2257980000  -0.8566760000
C  3.7951110000  -0.1252590000  -1.2472220000
C  4.7835090000  -0.1682940000  -0.2739030000
C  4.5025520000  -0.2994990000  1.0816750000
C  3.1891560000  -0.3807030000  1.4765240000
H  2.9156280000  -0.4704660000  2.5196140000
H  4.0767440000  -0.0231770000  -2.2869740000
H  1.6794110000  -0.2065090000  -1.5852960000
H  5.3179100000  -0.3257270000  1.7926270000
F  -5.8263850000  -1.2724670000  -0.0465780000
F  6.0649860000  -0.0815860000  -0.6559250000