59
charge=0, multiplicity=1, basis=def2-QZVPP, mem_total=240000, AUX_BASIS_CORR=rimp2-def2-QZVPPD, SCF_ALGORITHM=GDM, xc_grid=000099000590, num_basis=2472, num_pairs=1694629, num_threads=64
C  0.5214040000  -1.0128100000  0.2030750000
C  -0.2324870000  1.6073790000  0.3188560000
C  1.8948770000  -0.9958410000  -0.0992020000
H  0.1599440000  -1.2200740000  1.2013550000
C  -0.4230690000  -0.9793840000  -0.8681930000
C  0.5080020000  1.8994790000  -0.8167620000
C  -1.6483850000  1.8076810000  0.6212840000
H  0.3180670000  1.2998100000  1.1861520000
C  1.8408210000  1.4899470000  -0.8984770000
C  2.6374010000  0.8116880000  0.0518320000
C  4.0838460000  0.6231790000  -0.4155220000
C  2.5309100000  1.1846880000  1.5308540000
C  2.8338280000  -1.8047450000  0.7808990000
H  2.0868680000  -1.1315870000  -1.1602500000
H  1.8765280000  0.5264110000  2.1031010000
H  3.5105530000  1.1426780000  2.0049820000
H  2.1588110000  2.2044310000  1.6406340000
C  4.9218040000  -0.4115340000  0.3361250000
H  4.0763560000  0.3573820000  -1.4778970000
H  4.5880420000  1.5946740000  -0.3441770000
C  4.2764120000  -1.7922540000  0.2918090000
H  2.7747590000  -1.4697330000  1.8208180000
H  2.4679820000  -2.8350020000  0.7781390000
C  6.3406480000  -0.4477050000  -0.2238970000
H  4.9906640000  -0.1116650000  1.3878710000
H  4.8718780000  -2.4896760000  0.8889680000
H  4.3037940000  -2.1658730000  -0.7394500000
C  -0.0814340000  2.4775010000  -2.0829280000
H  2.2792820000  1.5678560000  -1.8896600000
H  -0.6823160000  3.3656810000  -1.8979800000
H  0.7197480000  2.7604350000  -2.7656260000
H  -0.6942370000  1.7337360000  -2.5948410000
H  6.3348500000  -0.7437020000  -1.2771670000
H  6.8215110000  0.5312270000  -0.1554590000
H  6.9602280000  -1.1651820000  0.3192790000
C  -2.6277030000  2.2802170000  -0.4201960000
H  -2.4572700000  3.3253140000  -0.6847740000
H  -2.5468540000  1.6921360000  -1.3329600000
H  -3.6513210000  2.1995340000  -0.0618530000
C  -2.0210200000  1.5194330000  1.8812730000
C  -3.3760250000  1.5760890000  2.4982260000
H  -3.3640860000  2.2178370000  3.3844930000
H  -4.1514410000  1.9440840000  1.8289800000
H  -3.6582640000  0.5753230000  2.8396210000
H  -1.2482900000  1.1491710000  2.5483700000
C  -1.8603710000  -1.2444620000  -0.5486620000
O  -0.1109300000  -0.7914370000  -2.0507680000
C  -2.8175840000  -1.3277240000  -1.4719600000
C  -2.4791710000  -1.5144550000  0.7911600000
H  -2.6615750000  -1.1913750000  -2.5334090000
C  -4.1521500000  -1.6386350000  -0.8648380000
N  -3.8192040000  -1.6607810000  0.5461820000
H  -4.4367000000  -1.9970600000  1.2671770000
O  -1.9585450000  -1.5986560000  1.8859450000
C  -5.2432090000  -0.6312380000  -1.2110040000
H  -6.1773220000  -0.8845890000  -0.7056760000
H  -5.4312120000  -0.6289850000  -2.2866090000
H  -4.9437710000  0.3715730000  -0.9057220000
H  -4.4690600000  -2.6375380000  -1.1936260000