39
charge=0, multiplicity=1, basis=def2-QZVPP, AUX_BASIS_CORR=rimp2-def2-QZVPPD, SCF_ALGORITHM=GDM, xc_grid=000099000590, mem_total=60000, num_basis=1737, num_pairs=977683, num_threads=16
C  -2.0615380000  0.8314070000  -1.1946950000
C  -2.9043700000  -0.0273800000  -0.2977600000
C  -2.4652970000  -1.0483070000  0.4364460000
C  -3.3894210000  -1.8972810000  1.2596970000
C  -1.0038380000  -1.4347250000  0.4644490000
C  -0.3515540000  -1.0151240000  1.7895930000
C  -0.2797750000  -0.9304140000  -0.8069920000
C  -0.5687180000  0.5437230000  -1.1110850000
C  0.1790180000  1.4686040000  -0.1710830000
O  -0.3157670000  2.4600490000  0.3113130000
C  1.6160480000  1.1245250000  0.0517660000
C  2.1022340000  -0.1580760000  -0.2782830000
C  1.1966570000  -1.2179440000  -0.7292540000
O  1.6136250000  -2.3393610000  -1.0079540000
C  3.4700670000  -0.4383630000  -0.0952020000
C  4.3166410000  0.5547900000  0.4061740000
C  3.8135980000  1.7967960000  0.7274060000
C  2.4607960000  2.0908260000  0.5560970000
O  3.9967770000  -1.6313520000  -0.3711980000
H  -3.0694320000  -1.9374190000  2.3042560000
H  -4.4079670000  -1.5190490000  1.2242840000
H  -3.3928560000  -2.9269240000  0.8875270000
H  -0.3506150000  0.0678680000  1.9204690000
H  -0.9091860000  -1.4388320000  2.6250960000
H  0.6757380000  -1.3749870000  1.8714720000
H  5.3634820000  0.3134430000  0.5381170000
H  4.4815050000  2.5556940000  1.1169890000
H  2.0568150000  3.0632910000  0.8025370000
H  3.2664900000  -2.2106370000  -0.6911460000
O  -4.2571860000  0.2207240000  -0.3612180000
C  -4.6726630000  1.5527690000  -0.1038510000
H  -4.2198910000  1.9340410000  0.8165970000
H  -5.7543160000  1.5178500000  0.0137440000
H  -4.4303120000  2.2254990000  -0.9310840000
H  -0.6587880000  -1.5312960000  -1.6364820000
H  -0.9508780000  -2.5276890000  0.4163910000
H  -0.1186770000  0.7639460000  -2.0879040000
H  -2.2133200000  1.8858930000  -0.9580950000
H  -2.4146970000  0.6838720000  -2.2208430000