19
charge=0, multiplicity=2, basis=def2-QZVPP, AUX_BASIS_CORR=rimp2-def2-QZVPPD, SCF_ALGORITHM=GDM, xc_grid=000099000590, mem_total=15000, num_basis=840, num_pairs=296247, num_threads=4
H  -3.6228870000  -0.3503620000  0.2421480000
C  -2.5677580000  -0.1337950000  0.1256670000
C  -1.6565050000  -1.1865970000  0.1135100000
H  -1.9714090000  -2.2166030000  0.2172360000
C  -0.3209970000  -0.8664250000  -0.0315270000
C  0.1158460000  0.4444180000  -0.1658770000
C  -0.7949120000  1.4816890000  -0.1499360000
H  -0.4620580000  2.5081640000  -0.2514790000
C  -2.1486730000  1.1856470000  0.0002300000
H  -2.8773360000  1.9862410000  0.0194510000
C  1.6204600000  0.4247980000  -0.3729000000
C  1.9186050000  -1.0288750000  0.0798390000
O  0.6959840000  -1.7711000000  -0.0733020000
H  2.1987890000  -1.0452500000  1.1376150000
H  2.6892180000  -1.5212990000  -0.5091400000
C  2.3876520000  1.4498540000  0.3756670000
H  3.0740760000  2.1216960000  -0.1201340000
H  2.2539990000  1.5431630000  1.4466970000
H  1.8274280000  0.5187630000  -1.4440130000