8
charge=0, multiplicity=1, basis=def2-QZVPP, AUX_BASIS_CORR=rimp2-def2-QZVPPD, SCF_ALGORITHM=GDM, xc_grid=000099000590, mem_total=3750, num_basis=348, num_pairs=59618, num_threads=1
C  1.3883170000  -0.1229410000  0.0000220000
C  -0.0883710000  0.1257510000  -0.0000120000
O  -0.6258430000  1.1990170000  -0.0000340000
O  -0.7885720000  -1.0284040000  0.0000080000
H  -1.7273300000  -0.7946050000  0.0000100000
H  1.9171580000  0.8260740000  -0.0002120000
H  1.6629050000  -0.7068490000  -0.8795910000
H  1.6629110000  -0.7063890000  0.8799410000