23
charge=0, multiplicity=1, basis=def2-QZVPP, AUX_BASIS_CORR=rimp2-def2-QZVPPD, SCF_ALGORITHM=GDM, xc_grid=000099000590, mem_total=15000, num_basis=1013, num_pairs=407541, num_threads=4
N  -0.2753390000  0.3005250000  -0.2950800000
S  1.0488350000  -0.4253410000  0.5147280000
O  2.2412160000  0.3459470000  -0.2064690000
C  2.4602310000  0.0969480000  -1.6088430000
C  -1.6427290000  -0.3587220000  -0.2044750000
Cl  -0.2937240000  2.0014050000  0.1252870000
O  1.1307300000  -0.0555830000  1.8975350000
O  1.0543640000  -1.8085760000  0.1087510000
H  3.3646400000  0.6476490000  -1.8504650000
H  1.6152660000  0.4739410000  -2.1845530000
H  2.6014890000  -0.9691530000  -1.7809920000
C  -1.5924220000  -1.6738940000  -0.9884300000
C  -2.6338130000  0.5636500000  -0.9163520000
C  -2.0639320000  -0.5853550000  1.2447460000
H  -1.2101980000  -1.5024400000  -1.9958050000
H  -2.6115420000  -2.0556870000  -1.0687180000
H  -0.9768020000  -2.4267650000  -0.5078700000
H  -2.2695050000  0.8367260000  -1.9077810000
H  -2.8347220000  1.4725990000  -0.3535140000
H  -3.5749080000  0.0253570000  -1.0330190000
H  -1.4206560000  -1.3126820000  1.7415180000
H  -3.0860850000  -0.9672810000  1.2701700000
H  -2.0321400000  0.3455760000  1.8126560000