23
charge=0, multiplicity=2, basis=def2-QZVPP, AUX_BASIS_CORR=rimp2-def2-QZVPPD, SCF_ALGORITHM=GDM, xc_grid=000099000590, mem_total=15000, num_basis=906, num_pairs=314003, num_threads=4
C  -2.1476300000  0.0570580000  0.1840950000
C  -0.8286410000  -0.1029730000  0.8664430000
C  0.3653050000  -0.1331880000  -0.1046510000
H  -0.8218830000  -1.0308500000  1.4504570000
H  -0.6756100000  0.7179990000  1.5765370000
C  1.7053250000  -0.2914720000  0.6162370000
H  0.3818970000  0.7874630000  -0.6957990000
H  0.2340380000  -0.9562290000  -0.8151320000
C  2.8637660000  -0.3682350000  -0.3291870000
H  1.6719020000  -1.2050210000  1.2222010000
H  1.8518940000  0.5414040000  1.3109050000
C  3.8709650000  0.4920060000  -0.3746080000
C  -2.5761070000  1.4148470000  -0.2584350000
H  -2.1628040000  1.6746660000  -1.2466150000
H  -2.2444430000  2.1901570000  0.4369050000
H  -3.6638110000  1.4822230000  -0.3529370000
C  -2.7810220000  -1.1304160000  -0.4577370000
H  -2.4065970000  -1.2933800000  -1.4815310000
H  -3.8650050000  -1.0107630000  -0.5429560000
H  -2.5812940000  -2.0475360000  0.1023440000
H  4.6769840000  0.3873960000  -1.0908630000
H  3.9261720000  1.3338340000  0.3083270000
H  2.8467990000  -1.1971280000  -1.0347840000