28
charge=-1, multiplicity=1, basis=def2-QZVPP, mem_total=30000, AUX_BASIS_CORR=rimp2-def2-QZVPPD, SCF_ALGORITHM=GDM, xc_grid=000099000590, num_basis=1299, num_pairs=516272, num_threads=8
C  5.1105540000  -0.5839080000  0.0000280000
C  5.2649850000  0.7947210000  0.0000200000
C  4.1338000000  1.6058270000  -0.0000040000
C  2.8670060000  1.0487020000  -0.0000190000
C  2.6938810000  -0.3411620000  -0.0000090000
C  3.8392960000  -1.1413430000  0.0000130000
H  3.7218450000  -2.2195790000  0.0000190000
H  5.9820170000  -1.2292690000  0.0000450000
H  6.2550860000  1.2359880000  0.0000310000
H  4.2419830000  2.6846660000  -0.0000130000
H  1.9958370000  1.6919850000  -0.0000410000
C  1.3718200000  -0.9762600000  -0.0000220000
C  0.2008380000  -0.3397530000  0.0000050000
C  -1.0838130000  -1.1024190000  -0.0000120000
C  -2.3431910000  -0.3560960000  -0.0000020000
C  -2.4528500000  1.0969400000  -0.0000060000
C  -3.8118790000  1.6016020000  0.0000100000
C  -4.9106890000  0.7942430000  0.0000250000
C  -4.7793190000  -0.6118240000  0.0000260000
C  -3.5145470000  -1.1418140000  0.0000120000
H  -3.3683220000  -2.2158860000  0.0000120000
H  -5.9022040000  1.2408820000  0.0000360000
H  -5.6539490000  -1.2517640000  0.0000380000
H  -3.9068450000  2.6821400000  0.0000080000
O  -1.4950980000  1.9137870000  -0.0000330000
O  -1.0462310000  -2.3361540000  -0.0000290000
H  0.0955710000  0.7381890000  0.0000350000
H  1.3542520000  -2.0631420000  -0.0000540000