18
charge=-1, multiplicity=1, basis=def2-QZVPP, mem_total=15000, AUX_BASIS_CORR=rimp2-def2-QZVPPD, SCF_ALGORITHM=GDM, xc_grid=000099000590, num_basis=864, num_pairs=294868, num_threads=4
O  1.6458580000  2.4954730000  0.0206400000
C  1.2098170000  1.3445640000  0.0028710000
C  -0.2006010000  0.9925400000  -0.0036360000
N  2.0528880000  0.2412730000  -0.0049490000
C  1.5689460000  -0.9867750000  -0.0218200000
C  -0.5328050000  -0.3509920000  -0.0105510000
N  0.2942690000  -1.4060510000  -0.0157820000
N  -1.3504140000  1.7649040000  0.0015010000
C  -2.3333110000  0.9139510000  -0.0023900000
N  -1.9079370000  -0.4004630000  -0.0168660000
H  -3.3863490000  1.1602420000  -0.0058950000
C  -2.7034900000  -1.5984090000  0.0238700000
H  -2.1766700000  -2.3856810000  -0.5152230000
H  -3.6689550000  -1.4164660000  -0.4519420000
H  -2.8714790000  -1.9407280000  1.0500920000
N  2.5218700000  -2.0118720000  -0.0730780000
H  2.1899530000  -2.8776020000  0.3235970000
H  3.4205710000  -1.7073570000  0.2684070000