15
charge=0, multiplicity=2, basis=def2-QZVPP, AUX_BASIS_CORR=rimp2-def2-QZVPPD, SCF_ALGORITHM=GDM, xc_grid=000099000590, mem_total=7500, num_basis=774, num_pairs=248346, num_threads=2
C  0.4645750000  0.7057020000  0.0000950000
C  0.4817980000  -0.6821300000  -0.0001040000
N  1.5691830000  -1.4287060000  -0.0002260000
C  2.7195790000  -0.7562570000  -0.0001440000
C  2.8136390000  0.6371030000  0.0000550000
C  1.6583640000  1.4035040000  0.0001800000
C  -0.9307190000  1.1977370000  0.0001820000
C  -0.9204450000  -1.2024680000  -0.0001590000
H  3.6211770000  -1.3591570000  -0.0002420000
H  3.7900530000  1.1036500000  0.0001090000
H  1.6793470000  2.4860410000  0.0003340000
O  -1.3529490000  -2.3060900000  -0.0003130000
O  -1.3640550000  2.3061750000  0.0003480000
N  -1.7352100000  -0.0014270000  0.0000230000
O  -2.9891370000  -0.0049280000  0.0000400000