20
charge=0, multiplicity=2, basis=def2-QZVPP, AUX_BASIS_CORR=rimp2-def2-QZVPPD, SCF_ALGORITHM=GDM, xc_grid=000099000590, mem_total=15000, num_basis=910, num_pairs=278164, num_threads=4
C  3.1423870000  0.9120580000  -0.0726020000
C  3.2514370000  -0.6133880000  -0.1462890000
C  1.6478270000  1.2060200000  0.0125630000
N  0.9999050000  -0.0077860000  -0.1033530000
C  1.8141290000  -1.1233810000  -0.1051800000
O  1.4592340000  -2.2705610000  -0.0851270000
O  1.1340810000  2.2834110000  0.1472210000
Cl  -0.9799590000  -0.1533820000  0.0844020000
H  3.5410210000  1.4209370000  -0.9506060000
H  3.6251810000  1.3446640000  0.8038550000
H  3.7928520000  -1.0548750000  0.6906600000
H  3.7164070000  -0.9744720000  -1.0639380000
C  -2.8619290000  -0.2697520000  0.9676960000
C  -3.7503080000  -0.4321430000  -0.1535080000
C  -4.4030770000  0.5950720000  -0.7205350000
H  -2.8937530000  0.6811700000  1.4862740000
H  -2.6995410000  -1.1276970000  1.6071390000
H  -3.8602950000  -1.4321490000  -0.5597890000
H  -4.2881970000  1.6072510000  -0.3489820000
H  -5.0630240000  0.4474430000  -1.5655990000