15
charge=0, multiplicity=1, basis=def2-QZVPP, AUX_BASIS_CORR=rimp2-def2-QZVPPD, SCF_ALGORITHM=GDM, xc_grid=000099000590, mem_total=7500, num_basis=666, num_pairs=192327, num_threads=2
H  3.1534780000  -0.7917450000  0.0051330000
O  2.7793140000  0.0927580000  0.0111780000
C  1.4108880000  0.0180820000  0.0029740000
C  0.7211040000  -1.1843280000  -0.0007650000
C  -0.6673260000  -1.1964200000  -0.0076210000
C  -1.3918410000  -0.0083440000  -0.0090530000
C  -0.6840720000  1.1942880000  -0.0081310000
C  0.6997170000  1.2095500000  -0.0006380000
H  1.2440780000  2.1453390000  0.0014210000
H  -1.1913640000  -2.1457090000  -0.0175580000
H  1.2644800000  -2.1239300000  0.0015710000
H  -1.2266110000  2.1332870000  -0.0185310000
N  -2.7920350000  -0.0166610000  -0.0709560000
H  -3.2280410000  -0.8532550000  0.2855180000
H  -3.2371100000  0.8136140000  0.2891240000