20
charge=0, multiplicity=2, basis=def2-QZVPP, AUX_BASIS_CORR=rimp2-def2-QZVPPD, SCF_ALGORITHM=GDM, xc_grid=000099000590, mem_total=15000, num_basis=843, num_pairs=290726, num_threads=4
C  1.6076930000  0.0000000000  -0.0001120000
C  0.1849400000  -0.0000010000  -0.0000110000
C  2.3675220000  1.2901360000  -0.0001550000
C  2.3675270000  -1.2901340000  -0.0001860000
C  -0.5580690000  -1.2062300000  0.0000830000
C  -0.5580670000  1.2062280000  -0.0000010000
H  2.1325490000  1.9024920000  -0.8783400000
H  3.4429090000  1.1145710000  -0.0000720000
H  2.1324290000  1.9026270000  0.8778980000
H  2.1323440000  -1.9026000000  -0.8782350000
H  2.1326510000  -1.9025180000  0.8780040000
H  3.4429140000  -1.1145650000  -0.0003800000
C  -1.9388720000  -1.2006350000  0.0001820000
C  -2.6439960000  0.0000010000  0.0001890000
C  -1.9388690000  1.2006350000  0.0000950000
H  -0.0376510000  2.1546740000  -0.0000770000
H  -2.4762250000  -2.1418630000  0.0002550000
H  -3.7268990000  0.0000020000  0.0002650000
H  -2.4762210000  2.1418640000  0.0000970000
H  -0.0376560000  -2.1546770000  0.0000840000