18
charge=0, multiplicity=2, basis=def2-QZVPP, AUX_BASIS_CORR=rimp2-def2-QZVPPD, SCF_ALGORITHM=GDM, xc_grid=000099000590, mem_total=7500, num_basis=756, num_pairs=250104, num_threads=2
C  0.1086070000  0.3290940000  -0.7684640000
C  1.2098270000  -0.3048290000  0.0613860000
O  1.2630690000  -1.6390890000  -0.1028270000
O  1.9180730000  0.2831030000  0.8337500000
C  -1.1986040000  0.0729550000  -0.0539000000
H  0.0818840000  -0.2011610000  -1.7243480000
N  0.4578140000  1.7214980000  -0.9927520000
H  1.9401720000  -1.9771810000  0.5001920000
C  -1.4644520000  0.7420450000  1.2505330000
C  -1.9924900000  -1.1319390000  -0.4193750000
H  0.9322510000  2.1113710000  -0.1867890000
H  -0.3620820000  2.2749490000  -1.2044260000
H  -0.9328420000  1.6895790000  1.3463270000
H  -2.5328420000  0.9328650000  1.3843080000
H  -3.0457310000  -1.0079880000  -0.1543720000
H  -1.6330010000  -2.0268450000  0.1108710000
H  -1.9268900000  -1.3525880000  -1.4873360000
H  -1.1520780000  0.1104480000  2.0963790000