35
charge=0, multiplicity=1, basis=def2-QZVPP, AUX_BASIS_CORR=rimp2-def2-QZVPPD, SCF_ALGORITHM=GDM, xc_grid=000099000590, mem_total=60000, num_basis=1563, num_pairs=805289, num_threads=16
C  -2.1874230000  3.5275490000  0.4197350000
C  -2.3348890000  2.3525030000  1.1407120000
C  -1.6509910000  1.2044880000  0.7587650000
C  -0.8066520000  1.2175260000  -0.3455750000
C  -0.6677500000  2.4028740000  -1.0648490000
C  -1.3505410000  3.5487480000  -0.6892430000
H  -2.7239330000  4.4210070000  0.7154510000
H  -2.9889290000  2.3238450000  2.0041760000
H  -1.7821930000  0.2896890000  1.3230030000
H  -0.0087130000  2.4263490000  -1.9262300000
H  -1.2313800000  4.4600390000  -1.2631990000
C  0.0000540000  -0.0000240000  -0.7721780000
C  -0.6510960000  -1.3074430000  -0.3456480000
C  -1.7478880000  -1.7790150000  -1.0642360000
C  -0.2169390000  -2.0329100000  0.7579060000
C  -2.3989750000  -2.9432100000  -0.6886980000
H  -2.0982900000  -1.2193600000  -1.9249680000
C  -0.8693510000  -3.1991300000  1.1398060000
H  0.6415370000  -1.6897740000  1.3215650000
C  -1.9615110000  -3.6581210000  0.4195390000
H  -3.2483980000  -3.2950200000  -1.2621000000
H  -0.5169890000  -3.7518160000  2.0026730000
H  -2.4671250000  -4.5694330000  0.7152090000
C  1.4578510000  0.0898450000  -0.3456140000
C  2.4148230000  -0.6234930000  -1.0646640000
C  1.8688600000  0.8280090000  0.7583830000
C  3.7485950000  -0.6051230000  -0.6891460000
H  2.1055060000  -1.2063080000  -1.9257710000
C  3.2050470000  0.8462770000  1.1402450000
H  1.1423060000  1.3993580000  1.3224050000
C  4.1488170000  0.1306260000  0.4195270000
H  4.4781160000  -1.1642800000  -1.2629230000
H  3.5073500000  1.4273350000  2.0034630000
H  5.1908420000  0.1485190000  0.7151950000
H  0.0000460000  -0.0000050000  -1.8665410000