11
charge=0, multiplicity=1, basis=def2-QZVPP, mem_total=3750, AUX_BASIS_CORR=rimp2-def2-QZVPPD, SCF_ALGORITHM=GDM, xc_grid=000099000590, num_basis=465, num_pairs=100705, num_threads=1
C  -2.2035460000  -0.5304090000  -0.0735180000
C  -1.2123670000  0.1283530000  0.0492270000
C  -0.0011210000  0.9417950000  0.1969250000
O  1.1292270000  0.3949680000  -0.4388000000
C  1.5701890000  -0.8166580000  0.1357950000
H  -0.1634260000  1.9200480000  -0.2572630000
H  0.1973630000  1.0967990000  1.2667030000
H  2.4654360000  -1.1153080000  -0.4062830000
H  1.8187100000  -0.6815460000  1.1963870000
H  0.8127950000  -1.6020650000  0.0449110000
H  -3.0836220000  -1.1161580000  -0.1846340000