16
charge=0, multiplicity=2, basis=def2-QZVPP, AUX_BASIS_CORR=rimp2-def2-QZVPPD, SCF_ALGORITHM=GDM, xc_grid=000099000590, mem_total=7500, num_basis=723, num_pairs=199697, num_threads=2
O  -2.7116450000  -1.2848000000  -0.0000270000
C  -2.4279190000  -0.1051450000  -0.0000050000
O  -3.3710960000  0.8639410000  -0.0000060000
C  -1.0838190000  0.4167810000  0.0000260000
C  0.0590250000  -0.5195600000  0.0000390000
H  -0.9150010000  1.4847440000  0.0000410000
C  1.3959830000  0.1771520000  0.0000070000
H  0.0143960000  -1.1959810000  -0.8619070000
H  0.0144180000  -1.1959290000  0.8620280000
C  3.7188170000  -0.1721730000  -0.0000210000
H  3.8780240000  0.4387180000  -0.8880930000
H  4.3847360000  -1.0304430000  -0.0000160000
H  3.8780480000  0.4387460000  0.8880260000
O  1.5655270000  1.3665870000  -0.0000130000
H  -4.2315730000  0.4235230000  -0.0000270000
O  2.3927690000  -0.7139410000  0.0000050000