24
charge=0, multiplicity=1, basis=def2-QZVPP, AUX_BASIS_CORR=rimp2-def2-QZVPPD, SCF_ALGORITHM=GDM, xc_grid=000099000590, mem_total=30000, num_basis=1125, num_pairs=467909, num_threads=8
C  2.1346320000  0.0617240000  -0.7011430000
C  2.4247500000  0.1426060000  0.8002060000
O  2.8247410000  -0.7624090000  1.4806360000
O  2.2278180000  1.3809030000  1.2775140000
H  2.4398960000  1.3709440000  2.2213060000
N  1.0304260000  0.8845110000  -1.1445460000
C  -0.2116850000  0.4393210000  -0.6420300000
C  -0.4307780000  -0.8938460000  -0.3924260000
N  0.5536060000  -1.8019460000  -0.6347900000
C  1.8613060000  -1.3869680000  -1.1085900000
H  2.6179810000  -2.0411650000  -0.6792680000
H  1.9165910000  -1.4464320000  -2.1980200000
C  -1.2312790000  1.3840970000  -0.3600250000
N  -2.4172580000  0.7912360000  0.1187830000
C  -2.5482280000  -0.5420300000  0.3421140000
N  -1.6045770000  -1.3939230000  0.0984600000
O  -1.1599500000  2.5988000000  -0.4841460000
N  -3.7318550000  -0.9687770000  0.8919420000
H  -3.8356090000  -1.9718070000  0.8896140000
H  -4.5691930000  -0.4576440000  0.6610830000
H  -3.1387770000  1.4430530000  0.3936610000
H  1.1508920000  1.8762130000  -0.9780970000
H  0.4260310000  -2.7176070000  -0.2378460000
H  3.0466160000  0.3989560000  -1.2020530000