27
charge=1, multiplicity=1, basis=def2-QZVPP, AUX_BASIS_CORR=rimp2-def2-QZVPPD, SCF_ALGORITHM=GDM, xc_grid=000099000590, mem_total=30000, num_basis=1134, num_pairs=452092, num_threads=8
C  -0.1869310000  -0.5178470000  0.0000570000
C  1.1916550000  -0.2093120000  0.0000220000
C  1.6498630000  1.1233210000  -0.0001240000
C  2.1058580000  -1.2789970000  0.0001390000
C  3.0028270000  1.3686280000  -0.0001510000
H  0.9349660000  1.9358060000  -0.0002130000
C  3.4604200000  -1.0193010000  0.0001100000
H  1.7440540000  -2.3009070000  0.0002510000
C  3.9027160000  0.2999390000  -0.0000350000
H  3.3725710000  2.3854880000  -0.0002630000
H  4.1734190000  -1.8328580000  0.0001990000
O  -1.0754490000  0.3755870000  -0.0000390000
C  -2.5757910000  0.0329400000  -0.0000020000
H  4.9669050000  0.5033920000  -0.0000570000
C  -2.8561350000  -0.7446890000  -1.2691370000
H  -2.3727130000  -1.7234010000  -1.2767310000
H  -3.9308510000  -0.9179040000  -1.3385960000
H  -2.5484850000  -0.1828700000  -2.1517090000
C  -3.2118450000  1.4041590000  -0.0001370000
H  -2.9254250000  1.9679450000  0.8877860000
H  -2.9254240000  1.9677710000  -0.8881710000
H  -4.2969340000  1.2939280000  -0.0001270000
C  -2.8561320000  -0.7444380000  1.2692870000
H  -2.3727140000  -1.7231510000  1.2770710000
H  -2.5484750000  -0.1824470000  2.1517460000
H  -3.9308480000  -0.9176350000  1.3387860000
H  -0.4954810000  -1.5642740000  0.0001700000