16
charge=0, multiplicity=2, basis=def2-QZVPP, AUX_BASIS_CORR=rimp2-def2-QZVPPD, SCF_ALGORITHM=GDM, xc_grid=000099000590, mem_total=7500, num_basis=736, num_pairs=235836, num_threads=2
N  -0.6418720000  -1.0936190000  -0.2989320000
H  0.0132830000  -1.5124430000  -0.9467680000
C  -0.1073840000  -0.1132450000  0.6306700000
H  -0.7438690000  -0.1314470000  1.5186790000
C  1.3210650000  -0.4582010000  1.0222660000
C  -0.1588000000  1.3000750000  0.0219320000
H  1.7024740000  0.2858380000  1.7197200000
H  1.3338120000  -1.4306770000  1.5246810000
S  2.4445920000  -0.6050130000  -0.3787010000
O  0.8536700000  1.8690010000  -0.3383240000
N  -1.3976550000  1.8227210000  -0.0663870000
H  -2.2084010000  1.2571220000  0.1558530000
H  -1.5090620000  2.7122880000  -0.5266350000
C  -1.9623010000  -1.3237850000  -0.4287650000
H  -2.1978820000  -2.1101280000  -1.1615440000
O  -2.8264970000  -0.7343930000  0.1953050000