25
charge=0, multiplicity=2, basis=def2-QZVPP, AUX_BASIS_CORR=rimp2-def2-QZVPPD, SCF_ALGORITHM=GDM, xc_grid=000099000590, mem_total=15000, num_basis=1074, num_pairs=380728, num_threads=4
C  -1.7681340000  0.7663790000  0.0000140000
C  -0.3926630000  0.3650410000  0.0000080000
C  -2.8886020000  -0.0767880000  -0.0000260000
C  0.0294130000  -0.9829600000  -0.0000420000
C  0.6158810000  1.3411180000  0.0000550000
C  -4.1802620000  0.3586990000  -0.0000190000
C  1.3622710000  -1.3181460000  -0.0000440000
C  2.3448980000  -0.3237990000  0.0000040000
C  1.9628170000  1.0140970000  0.0000540000
H  0.3306540000  2.3871690000  0.0000940000
H  1.6798000000  -2.3532910000  -0.0000820000
O  3.6313790000  -0.7591660000  -0.0000030000
H  2.6990240000  1.8054790000  0.0000910000
H  -0.7044770000  -1.7783710000  -0.0000800000
C  4.6639090000  0.2043390000  0.0000540000
H  5.5972670000  -0.3539600000  0.0000450000
H  4.6197970000  0.8352760000  0.8931330000
H  4.6198260000  0.8353510000  -0.8929730000
C  -5.3745520000  -0.5344490000  -0.0000590000
H  -6.0051780000  -0.3566590000  -0.8775420000
H  -6.0051710000  -0.3567460000  0.8774460000
H  -5.0860380000  -1.5872940000  -0.0001110000
H  -4.3644790000  1.4304820000  0.0000200000
H  -2.7267070000  -1.1518050000  -0.0000660000
H  -1.9552100000  1.8365160000  0.0000530000