52
charge=0, multiplicity=2, basis=def2-QZVPP, mem_total=120000, AUX_BASIS_CORR=rimp2-def2-QZVPPD, SCF_ALGORITHM=GDM, xc_grid=000099000590, num_basis=2356, num_pairs=1505935, num_threads=32
H  3.3491940000  -2.3938670000  0.7060690000
C  3.9603740000  -1.6345640000  0.2358900000
C  5.4950550000  0.2723850000  -1.0163570000
C  3.3876560000  -0.3920860000  0.0006520000
C  5.2674250000  -1.9364330000  -0.1187730000
C  6.0346870000  -0.9611480000  -0.7572360000
C  4.1609220000  0.6254290000  -0.6520950000
H  5.6753750000  -2.9171940000  0.0884740000
H  7.0550360000  -1.1737470000  -1.0528970000
H  6.0980890000  1.0232820000  -1.5134460000
C  3.7967440000  1.9399900000  -1.0068560000
H  4.4932110000  2.5205670000  -1.5978270000
C  1.9091590000  -0.2473430000  0.3477500000
O  1.4929080000  -1.1999480000  1.2910900000
C  1.8200510000  -0.6835020000  2.5737990000
C  1.5866340000  0.8187900000  2.4147050000
O  1.6479050000  1.0112850000  0.9979690000
H  1.1579040000  -1.1488990000  3.3007820000
H  2.8608590000  -0.9091130000  2.8210350000
H  2.3556640000  1.4204020000  2.8999550000
H  0.5940080000  1.1241510000  2.7450760000
O  2.6782500000  2.6196620000  -0.7308280000
H  2.1790990000  2.1741540000  -0.0154580000
C  1.0340690000  -0.3508510000  -0.8926430000
H  1.3221860000  0.4538030000  -1.5701340000
H  1.2754890000  -1.2895370000  -1.3937370000
C  -0.4864080000  -0.2890690000  -0.6591080000
C  -1.0571470000  -1.5166200000  0.0410700000
H  -0.4561270000  -2.4079360000  -0.1359030000
H  -1.1628540000  -1.3729040000  1.1127800000
S  -2.6786280000  -1.9911800000  -0.5876840000
C  -3.7182460000  -0.5771820000  -0.2640560000
C  -5.2142620000  1.6664580000  0.2738720000
C  -3.9039170000  0.3646080000  -1.2645520000
C  -4.2808650000  -0.4278960000  0.9945010000
C  -5.0318160000  0.7050190000  1.2606140000
C  -4.6574160000  1.4962520000  -0.9864620000
H  -3.4748300000  0.1979790000  -2.2440000000
H  -4.1317970000  -1.1932450000  1.7450790000
H  -5.4771020000  0.8385460000  2.2384450000
H  -4.8156500000  2.2400110000  -1.7575720000
H  -5.8021700000  2.5510550000  0.4875610000
O  -2.5646830000  -2.1255490000  -2.0391310000
O  -3.1413670000  -3.1049920000  0.2322030000
C  -0.8881820000  0.9857920000  0.0607850000
O  -1.3262420000  1.0518430000  1.1801130000
O  -0.7053550000  2.0460700000  -0.7272980000
C  -1.0061260000  3.3188530000  -0.1488240000
H  -0.3776270000  3.4932830000  0.7243070000
H  -2.0546600000  3.3585260000  0.1456960000
H  -0.7905940000  4.0502510000  -0.9223640000
H  -0.9163310000  -0.2289500000  -1.6619900000