26
charge=0, multiplicity=2, basis=def2-QZVPP, AUX_BASIS_CORR=rimp2-def2-QZVPPD, SCF_ALGORITHM=GDM, xc_grid=000099000590, mem_total=15000, num_basis=1050, num_pairs=395654, num_threads=4
C  2.6531600000  -0.0772670000  -0.0093110000
C  1.3059420000  -0.3891560000  -0.0335390000
C  0.2657940000  0.5313260000  0.0043980000
N  -1.0622720000  0.2129980000  -0.0351210000
H  0.4709470000  1.5936390000  0.0454830000
H  1.0437920000  -1.4415500000  -0.0914720000
C  3.6961360000  -1.1493830000  -0.0582820000
C  -1.5714350000  -1.1465590000  -0.0124560000
H  -1.3711840000  -1.6495350000  -0.9674780000
C  -3.0723620000  -0.9734110000  0.2396620000
H  -1.0881940000  -1.7359040000  0.7743960000
H  -3.6683820000  -1.7485520000  -0.2422860000
C  -3.3697970000  0.4330770000  -0.2874980000
H  -3.2747730000  -1.0167800000  1.3128150000
C  -2.1123310000  1.2072090000  0.0951240000
H  -4.2768680000  0.8664670000  0.1346100000
H  -3.4758350000  0.4148550000  -1.3751670000
H  -2.1810670000  1.5858920000  1.1258850000
H  -1.9208060000  2.0596940000  -0.5617610000
H  4.3446520000  -1.1217430000  0.8264020000
H  4.3555530000  -1.0309840000  -0.9272450000
H  3.2495210000  -2.1440240000  -0.1126990000
C  3.1207970000  1.3454540000  0.0681270000
H  2.7496470000  1.8483070000  0.9695550000
H  2.7731270000  1.9367780000  -0.7879270000
H  4.2103490000  1.4047070000  0.0853880000