17
charge=0, multiplicity=1, basis=def2-QZVPP, AUX_BASIS_CORR=rimp2-def2-QZVPPD, SCF_ALGORITHM=GDM, xc_grid=000099000590, mem_total=7500, num_basis=753, num_pairs=245017, num_threads=2
N  -0.6018330000  -1.0522690000  -0.3664500000
H  -0.0826170000  -1.6152190000  -1.0266540000
C  0.1814230000  -0.2502410000  0.5615110000
H  -0.3631120000  -0.2050960000  1.5081760000
C  1.5348980000  -0.9157240000  0.7667170000
C  0.3588550000  1.1802850000  0.0252710000
H  2.1385510000  -0.3053500000  1.4439680000
H  1.3910490000  -1.8978220000  1.2190430000
O  1.4360260000  1.5711190000  -0.3969070000
H  2.3991650000  -0.2380870000  -0.8042220000
N  -0.7517140000  1.9378510000  0.0633390000
H  -1.6413710000  1.5229300000  0.3176570000
H  -0.7164460000  2.8579020000  -0.3469910000
C  -1.9451780000  -1.0116260000  -0.4119820000
H  -2.3807700000  -1.7134480000  -1.1389690000
O  -2.6326870000  -0.2775050000  0.2767260000
O  2.1904610000  -1.1212440000  -0.4672350000