63
charge=0, multiplicity=1, basis=def2-QZVPP, mem_total=240000, AUX_BASIS_CORR=rimp2-def2-QZVPPD, SCF_ALGORITHM=GDM, xc_grid=000099000590, num_basis=2673, num_pairs=1603797, num_threads=64
O  -7.6408710000  -0.0533260000  -0.1639330000
C  -6.2439640000  -0.2271670000  -0.3685750000
C  -5.5631700000  0.9706460000  0.2957090000
C  -4.2358740000  1.3212050000  -0.2966010000
C  -4.3110640000  -1.7576710000  0.1817090000
C  -5.7942540000  -1.5894880000  0.1808940000
C  -3.0978170000  1.5074620000  0.3743870000
C  -1.3664870000  -2.3909970000  0.3721830000
C  -2.1478990000  -2.5188380000  -0.7083400000
C  -3.6057850000  -2.4597180000  -0.7043790000
C  -1.8653490000  1.9066250000  -0.2723080000
C  -0.7045940000  2.1335200000  0.3511120000
C  0.0735260000  -2.3190240000  0.2989980000
C  0.8662850000  -2.1312860000  1.3594940000
C  2.3232760000  -1.9518890000  1.2684910000
O  2.7890040000  -2.1394220000  0.0223820000
C  4.1571100000  -1.7745300000  -0.2778540000
C  4.7717430000  -2.9255360000  -1.0528830000
C  4.8341310000  -4.2218080000  -0.2548070000
C  0.4822270000  2.6128840000  -0.3957300000
C  1.6650850000  3.0546430000  0.4479800000
C  1.2900520000  4.3804510000  1.1291720000
O  3.0141370000  -1.6421280000  2.2095530000
C  4.1239100000  -0.4687130000  -1.0556790000
C  3.4993230000  0.6882860000  -0.2838430000
C  3.4089160000  1.9611050000  -1.1194510000
C  2.9675100000  3.2044800000  -0.3502640000
O  4.0079310000  3.6597650000  0.5170910000
O  0.4817980000  2.7073270000  -1.6071840000
H  -6.2412730000  1.8176080000  0.1491760000
H  -5.4849020000  0.8127180000  1.3750900000
H  -6.0246780000  -0.1970250000  -1.4443330000
H  -6.1820500000  -1.6689490000  1.2016110000
H  -6.2651650000  -2.3806740000  -0.4118050000
H  0.5288680000  -2.3904370000  -0.6834260000
H  0.4666200000  -2.0416810000  2.3626460000
H  4.6760290000  -1.6390500000  0.6727640000
H  3.5714460000  -0.6298760000  -1.9878100000
H  5.1504610000  -0.2123650000  -1.3368300000
H  2.4973780000  0.3988510000  0.0430070000
H  4.0833870000  0.8532260000  0.6296890000
H  4.3877370000  2.1905090000  -1.5515730000
H  2.7190600000  1.8030360000  -1.9499040000
H  2.8339690000  4.0161540000  -1.0672240000
H  1.8128510000  2.3016640000  1.2319690000
H  -1.8902550000  2.0552690000  -1.3490520000
H  4.1982330000  -3.0737240000  -1.9734160000
H  5.7784980000  -2.6218970000  -1.3549830000
H  3.8343760000  -4.5510170000  0.0330130000
H  5.4198690000  -4.0936040000  0.6587980000
H  5.2947960000  -5.0202380000  -0.8393620000
H  0.4114040000  4.2726150000  1.7668770000
H  1.0713130000  5.1424600000  0.3771750000
H  2.1228880000  4.7316930000  1.7358500000
H  4.2604590000  2.9387460000  1.1011680000
H  -8.1126500000  -0.8000560000  -0.5427180000
H  -0.6155670000  2.0107080000  1.4256720000
H  -1.6708910000  -2.6532200000  -1.6760910000
H  -1.8169760000  -2.3140330000  1.3575650000
H  -4.1230650000  -2.9741320000  -1.5105770000
H  -3.7709810000  -1.2016190000  0.9398610000
H  -4.2215360000  1.4614010000  -1.3759890000
H  -3.0766490000  1.3713530000  1.4533880000