28
charge=-1, multiplicity=1, basis=def2-QZVPP, mem_total=30000, AUX_BASIS_CORR=rimp2-def2-QZVPPD, SCF_ALGORITHM=GDM, xc_grid=000099000590, num_basis=1299, num_pairs=596099, num_threads=8
C  -3.6726930000  -1.0454700000  -0.1273800000
C  -3.7500100000  -0.6462520000  1.2029560000
C  -2.8021110000  0.2324460000  1.7079080000
C  -1.7851630000  0.7146140000  0.8915130000
C  -1.6955650000  0.3165970000  -0.4356510000
C  -2.6515880000  -0.5671130000  -0.9340190000
H  -2.5798030000  -0.8889390000  -1.9681350000
H  -4.4091330000  -1.7315600000  -0.5323720000
H  -4.5459820000  -1.0180820000  1.8389850000
H  -2.8531180000  0.5470820000  2.7446680000
H  -1.0451750000  1.4119490000  1.2658600000
C  -0.5656800000  0.8039470000  -1.3533300000
C  0.2355930000  1.9630590000  -0.8743150000
C  1.3395830000  1.7932080000  -0.0672820000
C  1.7539960000  0.3497480000  0.0899260000
C  1.2020780000  -0.6482300000  -0.7195860000
C  1.6480380000  -1.9627500000  -0.6351510000
C  2.6405640000  -2.2979740000  0.2755950000
C  3.1908810000  -1.3211030000  1.0983590000
C  2.7473470000  -0.0093090000  0.9918450000
H  3.1684360000  0.7938750000  1.5857410000
H  2.9792680000  -3.3265240000  0.3444140000
H  3.9663540000  -1.5811810000  1.8107560000
H  1.2000150000  -2.7054010000  -1.2848820000
O  0.2471030000  -0.3669170000  -1.6441690000
O  2.0366250000  2.6737200000  0.5104460000
H  -1.0252940000  1.0329330000  -2.3191560000
H  -0.1370120000  2.9589030000  -1.0844220000