22
charge=1, multiplicity=1, basis=def2-QZVPP, AUX_BASIS_CORR=rimp2-def2-QZVPPD, SCF_ALGORITHM=GDM, xc_grid=000099000590, mem_total=15000, num_basis=957, num_pairs=329978, num_threads=4
C  -2.6038090000  -0.0098700000  -0.0000140000
N  -1.4242090000  -0.4392390000  -0.0000170000
N  -0.3957320000  -1.0578370000  -0.0000250000
C  0.8486620000  -0.4181400000  -0.0000040000
C  1.9462930000  -1.2790670000  -0.0000170000
C  1.0025180000  0.9735070000  0.0000260000
C  3.2204030000  -0.7395890000  0.0000020000
H  1.7791110000  -2.3485080000  -0.0000400000
C  2.2768520000  1.4948440000  0.0000440000
H  0.1391320000  1.6277020000  0.0000350000
C  3.3816810000  0.6393130000  0.0000320000
H  4.0847490000  -1.3901570000  -0.0000070000
H  2.4239490000  2.5668750000  0.0000670000
H  4.3791230000  1.0612770000  0.0000460000
C  -3.2966910000  0.2546810000  -1.3019770000
H  -2.6701850000  0.0134070000  -2.1576870000
H  -4.2075050000  -0.3475370000  -1.3378770000
H  -3.5931250000  1.3045010000  -1.3485920000
C  -3.2967060000  0.2546240000  1.3019530000
H  -2.6702040000  0.0133270000  2.1576590000
H  -3.5931550000  1.3044380000  1.3486040000
H  -4.2075120000  -0.3476080000  1.3378220000