43
charge=0, multiplicity=1, basis=def2-QZVPP, AUX_BASIS_CORR=rimp2-def2-QZVPPD, SCF_ALGORITHM=GDM, xc_grid=000099000590, mem_total=60000, num_basis=1830, num_pairs=1013418, num_threads=16
C  -0.7811860000  -1.7929290000  0.5305690000
H  -0.5488200000  -2.3016980000  1.4847890000
C  -1.7848980000  -0.6908390000  0.7805300000
C  -0.0215740000  1.0095880000  0.2868350000
H  0.2270170000  1.3402770000  -0.7243850000
H  0.1698900000  1.8596650000  0.9487060000
C  0.9188290000  -0.1441140000  0.6349670000
H  0.8590190000  -0.3383600000  1.7235190000
N  0.4360790000  -1.3140220000  -0.0919760000
C  -2.4417750000  1.4558840000  -0.2025980000
C  -3.0355730000  -1.0280950000  1.2726670000
H  -3.4482820000  -0.3936720000  2.0360570000
H  -3.2932650000  -2.0798560000  1.3780410000
C  -3.7215570000  1.0200510000  -0.5718860000
C  -4.5533500000  0.0826920000  0.0273240000
C  -1.4777400000  0.6149370000  0.3869730000
H  -4.8554750000  0.2451120000  1.0454130000
H  -4.0279110000  1.3623760000  -1.5624300000
C  -5.5851930000  -0.6419320000  -0.7967130000
H  -5.7581530000  -1.6455120000  -0.4030430000
H  -6.5478410000  -0.1196270000  -0.7731730000
H  -5.2719630000  -0.7413240000  -1.8370650000
C  1.4218200000  -2.3668690000  -0.2313880000
H  1.7972700000  -2.7042110000  0.7525190000
H  0.9394480000  -3.2253950000  -0.7042460000
C  2.3585640000  0.2031860000  0.3160730000
C  3.1412020000  -0.5985040000  -0.5134550000
C  2.5729060000  -1.8701810000  -1.0842930000
H  2.2076850000  -1.6934280000  -2.1005780000
H  3.3555480000  -2.6305340000  -1.1462730000
H  -1.2439680000  -2.5411840000  -0.1223570000
C  4.4565840000  -0.2242440000  -0.7826720000
H  5.0605350000  -0.8552160000  -1.4263430000
C  2.9223160000  1.3478630000  0.8796810000
H  2.3288520000  1.9623550000  1.5467990000
C  5.0017740000  0.9243200000  -0.2366340000
H  6.0266070000  1.1984710000  -0.4561420000
C  4.2293090000  1.7125180000  0.6075870000
H  4.6466340000  2.6062850000  1.0555090000
C  -1.9740280000  2.7532150000  -0.8251710000
H  -1.2307720000  2.5947170000  -1.6113620000
H  -1.5107130000  3.3994990000  -0.0757310000
H  -2.8124640000  3.3001370000  -1.2547710000