43
charge=0, multiplicity=1, basis=def2-QZVPP, mem_total=120000, AUX_BASIS_CORR=rimp2-def2-QZVPPD, SCF_ALGORITHM=GDM, xc_grid=000099000590, num_basis=1965, num_pairs=1159155, num_threads=32
C  0.5951590000  0.5682150000  0.1502250000
C  1.6417870000  0.5705030000  -0.7655730000
C  -0.2767300000  -1.2994780000  0.1260530000
H  1.4479380000  1.1257580000  -1.6754600000
N  0.5750080000  -1.8665560000  -0.7670970000
N  1.4477500000  -1.5135280000  -1.4424880000
C  -1.7178860000  -1.4405670000  -0.0811680000
C  -2.6054050000  -1.0721640000  0.9296740000
C  -2.2227820000  -1.8140050000  -1.3293420000
C  -3.9695990000  -1.0547520000  0.6877690000
H  -2.2320350000  -0.7954760000  1.9069780000
C  -3.5861710000  -1.8048860000  -1.5613150000
H  -1.5442740000  -2.1194110000  -2.1167860000
C  -4.4644650000  -1.4186420000  -0.5556890000
H  -4.6480810000  -0.7593560000  1.4782930000
H  -3.9669150000  -2.1011240000  -2.5310560000
H  -5.5315360000  -1.4093350000  -0.7404980000
C  3.0593270000  0.3806110000  -0.4664080000
C  3.6318710000  -0.3653990000  0.7231220000
C  4.0395400000  0.8788110000  -1.2252680000
C  5.1151070000  -0.5383840000  0.3496010000
H  3.1427640000  -1.3244270000  0.9063220000
H  3.5014490000  0.2249620000  1.6341180000
C  5.4053150000  0.5682770000  -0.6823040000
H  3.8768680000  1.4803280000  -2.1121460000
H  5.2548190000  -1.5131290000  -0.1229480000
H  5.8415490000  1.4582890000  -0.2120720000
C  0.3171830000  -1.1187000000  1.5235190000
C  -0.5555390000  1.4911010000  0.0826920000
C  -1.0557590000  2.0834830000  1.2392160000
C  -1.1845290000  1.7502010000  -1.1361460000
C  -2.1554780000  2.9287250000  1.1751390000
H  -0.5778850000  1.8841950000  2.1894660000
C  -2.2824780000  2.5900640000  -1.1946720000
H  -0.8288690000  1.2702650000  -2.0399410000
C  -2.7740260000  3.1847160000  -0.0383560000
H  -2.5293100000  3.3870570000  2.0828940000
H  -2.7662650000  2.7725460000  -2.1466080000
H  -3.6362070000  3.8383650000  -0.0856740000
O  0.8985750000  0.0913930000  1.4763670000
O  0.2797680000  -1.8310390000  2.4718790000
H  6.1085680000  0.2487180000  -1.4553990000
H  5.7747160000  -0.4968440000  1.2170350000