41
charge=0, multiplicity=2, basis=def2-QZVPP, AUX_BASIS_CORR=rimp2-def2-QZVPPD, SCF_ALGORITHM=GDM, xc_grid=000099000590, mem_total=60000, num_basis=1756, num_pairs=1021697, num_threads=16
N  -1.0336690000  0.5738260000  -0.4133020000
S  -2.3599050000  -0.4151720000  -0.2745030000
O  -1.8074050000  -1.6987080000  -1.0707270000
C  -1.0450420000  -2.6940210000  -0.3513040000
C  0.4258370000  -2.3313380000  -0.3144620000
H  -1.1966340000  -3.6060460000  -0.9255380000
H  -1.4817470000  -2.8253570000  0.6382360000
C  0.7968970000  -1.1022390000  0.5151020000
C  2.1092280000  -0.5078970000  0.1183420000
C  0.5461740000  -1.2644780000  1.9990540000
C  -1.0860710000  1.9325830000  0.1933010000
C  0.3639890000  2.4052640000  0.2935890000
C  -1.7460930000  1.9995100000  1.5727720000
C  -1.8357440000  2.8296790000  -0.8033510000
H  -1.3527610000  2.7945280000  -1.7804310000
H  -1.8170600000  3.8588070000  -0.4374610000
H  -2.8712490000  2.5152340000  -0.9214790000
H  0.8731460000  2.3115510000  -0.6654530000
H  0.3789410000  3.4538570000  0.5949280000
H  0.9233970000  1.8336920000  1.0348290000
H  -1.2768230000  1.3061360000  2.2713540000
H  -2.8090500000  1.7626910000  1.5311370000
H  -1.6405400000  3.0121800000  1.9669290000
O  -3.4308260000  0.1258020000  -1.0700380000
O  -2.6186100000  -0.8336940000  1.0923920000
C  3.1259020000  -0.2667940000  1.0424950000
H  0.7622340000  -0.3449220000  2.5442350000
H  1.1777930000  -2.0577940000  2.4135030000
H  -0.4945380000  -1.5209560000  2.1926950000
C  2.3286360000  -0.1431460000  -1.2147910000
C  4.3275710000  0.3045220000  0.6461500000
C  3.5227690000  0.4337590000  -1.6090820000
C  4.5309800000  0.6584170000  -0.6789450000
H  3.6663210000  0.7170950000  -2.6448380000
H  1.5382940000  -0.2830780000  -1.9424820000
H  2.9883640000  -0.5335920000  2.0818550000
H  5.1073940000  0.4733820000  1.3790670000
H  5.4667770000  1.1088600000  -0.9864320000
H  0.7693210000  -2.2095320000  -1.3415910000
H  0.9733680000  -3.1899480000  0.0957570000
H  -0.0262530000  -0.2209390000  0.1201060000