40
charge=0, multiplicity=1, basis=def2-QZVPP, mem_total=60000, AUX_BASIS_CORR=rimp2-def2-QZVPPD, SCF_ALGORITHM=GDM, xc_grid=000099000590, num_basis=1713, num_pairs=908282, num_threads=16
C  0.9635970000  1.6437650000  0.1719020000
H  1.1254390000  2.6691190000  -0.1636390000
H  1.1602670000  1.6253000000  1.2641640000
C  1.9497040000  0.7136580000  -0.5029030000
C  0.1220530000  -0.9727680000  -0.7312580000
H  -0.2599030000  -0.8144130000  -1.7439380000
H  -0.0196980000  -2.0256200000  -0.4886300000
C  -0.6983680000  -0.0949760000  0.2178770000
H  -0.3592730000  -0.3049510000  1.2521250000
N  -0.4155100000  1.2970930000  -0.1118250000
C  2.5028310000  -1.6508900000  -0.3802450000
C  3.2443750000  1.1454510000  -0.7585370000
H  3.6670830000  0.8587060000  -1.7043080000
H  3.5453450000  2.1347940000  -0.4217570000
C  3.7772790000  -1.4873110000  0.1579400000
H  4.0236940000  -2.1866170000  0.9576680000
C  4.6596180000  -0.4270250000  -0.0415210000
C  1.5895250000  -0.6258740000  -0.6604200000
C  5.6929990000  -0.1018300000  1.0048440000
H  5.9634360000  0.9551060000  0.9673010000
H  5.3293660000  -0.3184900000  2.0103800000
H  6.6129170000  -0.6734840000  0.8402000000
H  4.9922570000  -0.2381120000  -1.0462220000
C  -2.1809200000  -0.4145400000  0.1557500000
C  -1.3457350000  2.2256600000  0.5004460000
H  -0.9922240000  3.2414240000  0.3119980000
H  -1.3875680000  2.0922870000  1.5972260000
C  -2.7216440000  2.0268580000  -0.1044700000
H  -2.6928860000  2.3376900000  -1.1532050000
C  -3.1402220000  0.5841040000  -0.0096570000
H  -3.4550110000  2.6587790000  0.4031930000
C  -4.4891370000  0.2370030000  -0.0587380000
H  -5.2279890000  1.0212270000  -0.1865530000
C  -2.6028500000  -1.7362010000  0.3020130000
H  -1.8702250000  -2.5180630000  0.4621950000
C  -4.8967220000  -1.0794090000  0.0639440000
H  -5.9499510000  -1.3299600000  0.0246060000
C  -3.9445460000  -2.0726740000  0.2545070000
H  -4.2473030000  -3.1065100000  0.3689630000
H  2.0597870000  -2.6358560000  -0.2578410000