14
charge=0, multiplicity=2, basis=def2-QZVPP, AUX_BASIS_CORR=rimp2-def2-QZVPPD, SCF_ALGORITHM=GDM, xc_grid=000099000590, mem_total=3750, num_basis=609, num_pairs=167866, num_threads=1
C  2.3897770000  0.0000000000  0.0000050000
C  0.9883240000  0.0000000000  0.0000020000
C  0.2509350000  -1.2119560000  0.0000100000
C  0.2509350000  1.2119560000  -0.0000090000
H  0.7912210000  -2.1517020000  0.0000180000
C  -1.1275750000  -1.2057400000  0.0000070000
C  -1.1275750000  1.2057400000  -0.0000120000
C  -1.8290950000  0.0000000000  -0.0000040000
H  0.7912210000  2.1517020000  -0.0000150000
H  -1.6694750000  -2.1440850000  0.0000130000
H  -1.6694750000  2.1440850000  -0.0000200000
H  -2.9119650000  0.0000000000  -0.0000060000
H  2.9470590000  0.9274930000  -0.0000010000
H  2.9470590000  -0.9274930000  0.0000130000