13
charge=0, multiplicity=1, basis=def2-QZVPP, mem_total=3750, AUX_BASIS_CORR=rimp2-def2-QZVPPD, SCF_ALGORITHM=GDM, xc_grid=000099000590, num_basis=552, num_pairs=141838, num_threads=1
C  -0.1740930000  -1.1142160000  -0.0136170000
C  -1.4845200000  -0.7096450000  0.0148520000
C  -1.4845220000  0.7096440000  0.0148590000
C  -0.1740960000  1.1142160000  -0.0136210000
N  0.6211460000  0.0000010000  -0.0376270000
H  -2.3455300000  1.3586590000  0.0230310000
C  2.0663630000  -0.0000010000  0.0255630000
H  2.4539440000  -0.8833250000  -0.4813080000
H  2.4539160000  0.8835190000  -0.4809860000
H  2.4218370000  -0.0001810000  1.0589500000
H  -2.3455280000  -1.3586630000  0.0230190000
H  0.2592720000  -2.1014090000  -0.0237640000
H  0.2592690000  2.1014100000  -0.0237720000