12
charge=0, multiplicity=2, basis=def2-QZVPP, AUX_BASIS_CORR=rimp2-def2-QZVPPD, SCF_ALGORITHM=GDM, xc_grid=000099000590, mem_total=3750, num_basis=562, num_pairs=146642, num_threads=1
C  2.2228820000  0.0000000000  -0.0000840000
C  1.5291770000  -1.2075080000  -0.0000600000
C  0.1480740000  -1.2122200000  -0.0000120000
C  -0.5718410000  0.0000000000  0.0000150000
C  0.1480740000  1.2122200000  -0.0000160000
C  1.5291770000  1.2075080000  -0.0000660000
S  -2.2922470000  0.0000000000  0.0001010000
H  3.3061680000  0.0000000000  -0.0001160000
H  2.0727400000  -2.1443360000  -0.0000750000
H  -0.4044800000  -2.1428710000  0.0000020000
H  -0.4044810000  2.1428700000  -0.0000020000
H  2.0727400000  2.1443370000  -0.0000910000