36
charge=1, multiplicity=1, basis=def2-QZVPP, AUX_BASIS_CORR=rimp2-def2-QZVPPD, SCF_ALGORITHM=GDM, xc_grid=000099000590, mem_total=60000, num_basis=1485, num_pairs=778362, num_threads=16
C  -1.2038590000  -1.3505890000  0.0411430000
C  -1.2037860000  1.3506170000  0.0411440000
C  0.3219000000  1.2485120000  0.1116660000
C  0.8480620000  -0.0000410000  0.8189010000
C  0.3218320000  -1.2485650000  0.1116650000
H  0.7356330000  1.2682430000  -0.8969310000
H  0.6726600000  2.1455330000  0.6253000000
H  0.5172490000  -0.0000330000  1.8595160000
H  0.7355660000  -1.2683180000  -0.8969310000
H  0.6725460000  -2.1456050000  0.6252980000
N  -1.7704280000  0.0000290000  -0.4009210000
O  -2.7237060000  0.0000560000  -1.0929770000
C  -1.6369070000  -2.3839250000  -0.9893630000
H  -1.1504460000  -3.3245550000  -0.7308100000
H  -2.7135540000  -2.5440920000  -0.9894310000
H  -1.3165050000  -2.1052810000  -1.9939510000
C  -1.8518800000  -1.6568910000  1.4033190000
H  -2.9376480000  -1.5647580000  1.3586370000
H  -1.6139490000  -2.6957920000  1.6328890000
H  -1.4708780000  -1.0399560000  2.2123840000
C  -1.6367790000  2.3839780000  -0.9893610000
H  -2.7134180000  2.5442000000  -0.9894290000
H  -1.1502700000  3.3245820000  -0.7308050000
H  -1.3163920000  2.1053180000  -1.9939490000
C  -1.8517910000  1.6569520000  1.4033210000
H  -1.6138020000  2.6958400000  1.6328940000
H  -2.9375630000  1.5648800000  1.3586370000
H  -1.4708230000  1.0399940000  2.2123840000
N  2.3011170000  -0.0000850000  0.8722270000
C  3.0929620000  -0.0000800000  -0.2453620000
C  4.5777450000  0.0000530000  -0.0062980000
H  5.0065390000  -0.8776720000  -0.4906280000
H  5.0060300000  0.8792070000  -0.4885140000
H  4.8521900000  -0.0010950000  1.0483280000
O  2.6090840000  -0.0000920000  -1.3626070000
H  2.7439930000  -0.0000890000  1.7759920000