24
charge=0, multiplicity=2, basis=def2-QZVPP, AUX_BASIS_CORR=rimp2-def2-QZVPPD, SCF_ALGORITHM=GDM, xc_grid=000099000590, mem_total=15000, num_basis=1044, num_pairs=388270, num_threads=4
C  -1.2619370000  -0.4150680000  0.0000050000
C  -2.3381520000  -1.2756760000  0.0000210000
C  -1.3886170000  0.9557190000  -0.0000160000
C  -3.6175790000  -0.7220190000  0.0000140000
C  -2.6723840000  1.4971670000  -0.0000230000
C  -3.7799770000  0.6578520000  -0.0000070000
C  1.8008900000  -0.4963110000  -1.1831020000
C  2.9053360000  0.2504230000  -1.2339400000
H  1.2602010000  -0.7806260000  -2.0774770000
C  3.6669910000  0.6382640000  -0.0000080000
H  3.2856150000  0.5588470000  -2.2000790000
C  2.9053360000  0.2504530000  1.2339330000
H  3.8709220000  1.7166330000  -0.0000210000
H  4.6592910000  0.1644450000  -0.0000020000
C  1.8008900000  -0.4962830000  1.1831130000
H  3.2856150000  0.5588990000  2.2000660000
H  1.2602010000  -0.7805760000  2.0774950000
H  -0.5150770000  1.5994560000  -0.0000280000
H  -2.8055070000  2.5730070000  -0.0000390000
H  0.1405310000  -0.9777750000  0.0000110000
H  -2.2043200000  -2.3516050000  0.0000370000
H  -4.4856110000  -1.3714660000  0.0000260000
H  -4.7768710000  1.0819960000  -0.0000120000
N  1.2714620000  -1.0083380000  0.0000120000