17
charge=0, multiplicity=1, basis=def2-QZVPP, AUX_BASIS_CORR=rimp2-def2-QZVPPD, SCF_ALGORITHM=GDM, xc_grid=000099000590, mem_total=7500, num_basis=726, num_pairs=239956, num_threads=2
C  -1.3215520000  -0.6153400000  -0.1892160000
C  -0.4064500000  0.5707830000  -0.0118400000
N  -0.4637470000  -1.7552180000  -0.4039490000
N  0.7324420000  -1.4055870000  -0.3213730000
N  0.8704650000  -0.0614900000  -0.1933210000
C  2.1015610000  0.4473050000  0.3581780000
H  2.3111200000  1.4365950000  -0.0502290000
H  2.0619580000  0.5155630000  1.4524750000
H  2.9054290000  -0.2282960000  0.0724800000
C  -1.1856030000  0.0494950000  1.1616350000
H  -2.0357820000  0.6365180000  1.4826430000
H  -0.6680190000  -0.4936610000  1.9433670000
C  -0.5839810000  1.9470430000  -0.5816690000
H  -0.0039800000  2.6863100000  -0.0234500000
H  -0.2706960000  1.9743720000  -1.6270190000
H  -1.6322910000  2.2438400000  -0.5273840000
H  -2.2657090000  -0.6108860000  -0.7149150000