18
charge=0, multiplicity=1, basis=def2-QZVPP, AUX_BASIS_CORR=rimp2-def2-QZVPPD, SCF_ALGORITHM=GDM, xc_grid=000099000590, mem_total=7500, num_basis=756, num_pairs=239242, num_threads=2
C  -0.6919640000  1.1889070000  0.0000000000
C  0.6919640000  1.1889070000  0.0000010000
C  1.4130790000  -0.0053570000  0.0000010000
C  0.6953320000  -1.1939120000  0.0000010000
C  -0.6953320000  -1.1939120000  0.0000000000
C  -1.4130790000  -0.0053570000  -0.0000010000
H  -1.2257870000  2.1336770000  0.0000000000
H  -1.2278020000  -2.1388600000  -0.0000010000
H  1.2278020000  -2.1388600000  0.0000020000
H  1.2257870000  2.1336770000  0.0000010000
C  2.9178510000  0.0055200000  -0.0000010000
H  3.3091630000  0.5211540000  -0.8805140000
H  3.3204000000  -1.0081270000  0.0000290000
C  -2.9178510000  0.0055200000  0.0000000000
H  -3.3204000000  -1.0081270000  -0.0000170000
H  -3.3091630000  0.5211660000  0.8805060000
H  -3.3091640000  0.5211960000  -0.8804880000
H  3.3091650000  0.5212080000  0.8804800000