25
charge=0, multiplicity=1, basis=def2-QZVPP, AUX_BASIS_CORR=rimp2-def2-QZVPPD, SCF_ALGORITHM=GDM, xc_grid=000099000590, mem_total=30000, num_basis=1101, num_pairs=445045, num_threads=8
C  -0.0000050000  -1.4626940000  0.0002960000
C  1.2654160000  -0.6375900000  -0.0595490000
C  2.2875800000  -0.8254690000  0.8635740000
C  1.4324780000  0.3273700000  -1.0516400000
C  3.4541790000  -0.0722850000  0.7994720000
H  2.1705490000  -1.5699240000  1.6436920000
C  2.5943300000  1.0789450000  -1.1209850000
H  0.6370240000  0.4958760000  -1.7690700000
C  3.6111550000  0.8817200000  -0.1937350000
H  4.2390470000  -0.2320260000  1.5292670000
H  2.7076500000  1.8243860000  -1.8992250000
H  4.5184130000  1.4713250000  -0.2459850000
C  -1.2654180000  -0.6375530000  0.0598050000
C  -2.2876220000  -0.8258620000  -0.8631870000
C  -1.4324380000  0.3278710000  1.0514520000
C  -3.4542170000  -0.0726480000  -0.7993870000
H  -2.1706240000  -1.5706810000  -1.6429630000
C  -2.5942870000  1.0794790000  1.1204940000
H  -0.6369530000  0.4967130000  1.7687690000
C  -3.6111510000  0.8818200000  0.1933800000
H  -4.2391160000  -0.2327300000  -1.5290750000
H  -2.7075730000  1.8252830000  1.8983900000
H  -4.5184070000  1.4714500000  0.2453930000
H  -0.0458650000  -2.1193250000  -0.8730140000
H  0.0458480000  -2.1189690000  0.8738740000