11
charge=1, multiplicity=1, basis=def2-QZVPP, AUX_BASIS_CORR=rimp2-def2-QZVPPD, SCF_ALGORITHM=GDM, xc_grid=000099000590, mem_total=3750, num_basis=492, num_pairs=115920, num_threads=1
C  1.1730980000  -0.6409070000  0.0000380000
H  -2.0792100000  -1.2311290000  0.0000360000
H  -2.0650720000  1.3110370000  -0.0000710000
C  1.1424230000  0.7430890000  -0.0000220000
C  -1.1731030000  -0.6408980000  0.0000160000
N  0.0000050000  1.4187180000  -0.0000600000
C  -1.1424230000  0.7430900000  -0.0000450000
N  -0.0000010000  -1.2873810000  0.0000550000
H  2.0650800000  1.3110250000  -0.0000330000
H  2.0792060000  -1.2311350000  0.0000740000
H  -0.0000050000  -2.3053940000  0.0001020000