25
charge=0, multiplicity=2, basis=def2-QZVPP, AUX_BASIS_CORR=rimp2-def2-QZVPPD, SCF_ALGORITHM=GDM, xc_grid=000099000590, mem_total=15000, num_basis=1087, num_pairs=386343, num_threads=4
C  3.4690900000  -0.6396200000  -0.3927200000
C  3.4638200000  0.7660500000  0.2141800000
C  2.0018100000  -1.0463800000  -0.4853300000
N  1.2709300000  0.0046800000  0.0272600000
C  1.9937800000  1.1029900000  0.4429600000
O  1.5524900000  2.1239700000  0.8970600000
O  1.5682100000  -2.0796400000  -0.9185300000
Cl  -0.6910400000  -0.0346000000  0.1021000000
H  3.9895100000  -1.3774800000  0.2182900000
H  3.8984000000  -0.6821900000  -1.3939300000
H  3.8898800000  1.5266700000  -0.4404000000
H  3.9814500000  0.8307200000  1.1715100000
C  -2.8555500000  -0.0309200000  0.0849300000
C  -3.1587800000  -1.4920300000  0.2200400000
C  -3.1573800000  0.5797300000  -1.2496300000
C  -3.1633000000  0.8204600000  1.2788700000
H  -2.7480500000  -2.0667100000  -0.6096100000
H  -4.2493400000  -1.6206400000  0.2158800000
H  -2.7760300000  -1.8980900000  1.1559200000
H  -2.7591400000  -0.0224700000  -2.0658000000
H  -2.7611800000  1.5919000000  -1.3266000000
H  -4.2475100000  0.6327400000  -1.3684500000
H  -2.7808000000  0.3782800000  2.1983500000
H  -4.2542700000  0.9044200000  1.3717600000
H  -2.7553800000  1.8252400000  1.1724800000