15
charge=0, multiplicity=2, basis=def2-QZVPP, AUX_BASIS_CORR=rimp2-def2-QZVPPD, SCF_ALGORITHM=GDM, xc_grid=000099000590, mem_total=3750, num_basis=612, num_pairs=179538, num_threads=1
C  -0.9495810000  0.0085290000  0.4359140000
C  -0.0151280000  1.2584040000  0.1911750000
C  1.3900800000  0.6835620000  -0.0550390000
H  -0.0680280000  1.9263510000  1.0503480000
H  -0.3837640000  1.8100960000  -0.6745850000
C  1.1571930000  -0.7774410000  -0.4449350000
H  1.9737060000  0.7261180000  0.8688390000
H  1.9365230000  1.2476470000  -0.8119730000
C  0.0066030000  -1.1922760000  0.4673580000
H  2.0462890000  -1.3990760000  -0.3287290000
H  0.8381750000  -0.8418680000  -1.4883990000
O  -1.7770000000  -0.0063980000  -0.6495400000
H  0.3641470000  -1.3332620000  1.4928950000
H  -0.5012360000  -2.1071620000  0.1592380000
H  -1.5248220000  0.1376750000  1.3618510000