28
charge=0, multiplicity=1, basis=def2-QZVPP, mem_total=30000, AUX_BASIS_CORR=rimp2-def2-QZVPPD, SCF_ALGORITHM=GDM, xc_grid=000099000590, num_basis=1164, num_pairs=541023, num_threads=8
C  2.9121110000  0.1850600000  0.1929500000
C  1.9272440000  1.3538430000  0.3411310000
C  0.5190820000  0.8232870000  0.3140610000
C  0.2596040000  -0.5332350000  0.2762240000
C  1.1467300000  -1.5231310000  -0.4289230000
C  2.4290220000  -0.8034790000  -0.8744460000
H  2.0655420000  2.0646800000  -0.4803030000
H  2.1184330000  1.9114430000  1.2649620000
H  3.9054200000  0.5641230000  -0.0582810000
H  3.0074330000  -0.3419120000  1.1487150000
H  1.4044260000  -2.3528470000  0.2400160000
H  0.6462960000  -1.9773110000  -1.2933950000
H  3.2081110000  -1.5350180000  -1.1012810000
H  2.2333470000  -0.2512060000  -1.8004720000
C  -2.0096770000  0.0115380000  -1.4034740000
C  -1.8056050000  1.3929010000  -0.7850810000
C  -1.1098070000  -0.6790310000  0.6802020000
C  -2.1669630000  -1.0493430000  -0.2895860000
H  -1.1391600000  -0.2515690000  -2.0094890000
H  -2.7420670000  1.6948810000  -0.2985370000
H  -1.6590810000  2.1179440000  -1.5984670000
H  -3.1464080000  -0.9994770000  0.1898370000
H  -2.0351440000  -2.0585690000  -0.6896970000
H  -2.8758000000  0.0171870000  -2.0695090000
O  -1.5028700000  -0.6436240000  1.9746400000
H  -0.7415790000  -0.3731120000  2.5044180000
C  -0.6867140000  1.5512550000  0.2361000000
H  -0.7169660000  2.5417780000  0.6994190000