28
charge=0, multiplicity=1, basis=def2-QZVPP, mem_total=30000, AUX_BASIS_CORR=rimp2-def2-QZVPPD, SCF_ALGORITHM=GDM, xc_grid=000099000590, num_basis=1285, num_pairs=599484, num_threads=8
C  0.4823800000  -2.7208950000  0.9623270000
C  0.3782480000  -1.8923110000  -0.0708020000
C  -0.9011180000  -1.6727100000  -0.8126900000
H  -0.7293410000  -1.3037330000  -1.8215010000
H  -1.5258990000  -2.5651750000  -0.8425130000
S  -1.9710550000  -0.4488260000  -0.0004010000
C  -0.9196080000  0.9798020000  0.1728260000
C  0.8112280000  3.1041040000  0.3844800000
C  -0.8191440000  1.8736810000  -0.8823110000
C  -0.1830060000  1.1337480000  1.3381680000
C  0.6907620000  2.2066020000  1.4376050000
C  0.0556930000  2.9422600000  -0.7701870000
H  -1.4212050000  1.7292460000  -1.7699190000
H  -0.3067560000  0.4262870000  2.1472900000
H  1.2718010000  2.3451520000  2.3408890000
H  0.1482980000  3.6494210000  -1.5846810000
H  1.4941560000  3.9411700000  0.4666710000
O  -3.0405770000  -0.1352200000  -0.9396140000
O  -2.2720390000  -0.9514730000  1.3361200000
C  1.5372770000  -1.0899200000  -0.5573210000
O  1.5250590000  -0.4594960000  -1.5843600000
O  2.5912160000  -1.1360350000  0.2623640000
C  3.7214330000  -0.3564160000  -0.1411900000
H  4.0955570000  -0.6990040000  -1.1054080000
H  4.4683360000  -0.5015980000  0.6343700000
H  3.4420500000  0.6942900000  -0.2169720000
H  1.4189640000  -2.8364000000  1.4900420000
H  -0.3732360000  -3.2883100000  1.3066160000