7
charge=0, multiplicity=1, basis=def2-QZVPP, AUX_BASIS_CORR=rimp2-def2-QZVPPD, SCF_ALGORITHM=GDM, xc_grid=000099000590, mem_total=3750, num_basis=291, num_pairs=42208, num_threads=1
H  -1.7225220000  0.1073080000  0.5824940000
O  -1.1439520000  -0.3008960000  -0.0733980000
O  -0.0230770000  0.5979110000  -0.0376560000
C  1.1277110000  -0.2149250000  0.0294890000
H  1.9629970000  0.4858900000  0.0085700000
H  1.1468940000  -0.7974270000  0.9546980000
H  1.1825990000  -0.8823380000  -0.8342620000