31
charge=0, multiplicity=2, basis=def2-QZVPP, AUX_BASIS_CORR=rimp2-def2-QZVPPD, SCF_ALGORITHM=GDM, xc_grid=000099000590, mem_total=30000, num_basis=1321, num_pairs=647483, num_threads=8
C  -2.4073670000  -2.2505420000  0.0660510000
C  -1.8205090000  -1.7643510000  1.2231940000
C  -1.2511250000  -0.4957470000  1.2436930000
C  -1.2608370000  0.3036630000  0.1069420000
C  -1.8522550000  -0.1966430000  -1.0542750000
C  -2.4205260000  -1.4598130000  -1.0779500000
H  -2.8486980000  -3.2399170000  0.0508490000
H  -1.7913750000  -2.3760940000  2.1168560000
H  -0.7668690000  -0.1534970000  2.1469130000
H  -1.8402180000  0.4065540000  -1.9537820000
H  -2.8721970000  -1.8310020000  -1.9904330000
C  -0.6338220000  1.6955520000  0.0644790000
O  0.1856470000  1.8164270000  -1.0850860000
S  2.6309530000  -0.7865050000  -0.0026560000
C  1.4636190000  -1.8108830000  -0.9294480000
H  0.4650460000  -1.3865430000  -0.8614030000
H  1.7988580000  -1.8720670000  -1.9649910000
H  1.4872400000  -2.7972530000  -0.4704530000
C  2.4350060000  0.7455750000  -0.8842890000
H  2.9743040000  1.5330750000  -0.3621530000
H  2.7533460000  0.6450080000  -1.9220900000
H  1.2234830000  1.1687980000  -0.9502730000
O  2.0998510000  -0.6207150000  1.3953660000
C  0.1472690000  2.0556980000  1.3261880000
H  0.6429010000  3.0146310000  1.1678870000
H  -0.5219520000  2.1571290000  2.1826640000
H  0.8956010000  1.2959150000  1.5595820000
C  -1.7307250000  2.7502330000  -0.1709080000
H  -2.4547180000  2.7075870000  0.6445760000
H  -1.2843050000  3.7444580000  -0.2061020000
H  -2.2520400000  2.5651540000  -1.1094530000