25
charge=0, multiplicity=1, basis=def2-QZVPP, AUX_BASIS_CORR=rimp2-def2-QZVPPD, SCF_ALGORITHM=GDM, xc_grid=000099000590, mem_total=30000, num_basis=1074, num_pairs=447832, num_threads=8
C  -1.6851710000  -1.5853030000  -0.0923720000
C  -3.0190380000  -0.8935820000  0.2587970000
C  -2.8405580000  0.5775170000  -0.1720460000
C  -1.3489830000  0.7776540000  -0.0707340000
C  -0.6932830000  -0.4539230000  -0.0352750000
H  -1.4388630000  -2.4050880000  0.5849470000
H  -1.7098140000  -2.0034230000  -1.1051470000
H  -3.1676380000  -0.9343760000  1.3406270000
H  -3.8800820000  -1.3714570000  -0.2092920000
H  -3.1700650000  0.7234920000  -1.2065830000
H  -3.4119440000  1.2703050000  0.4479380000
C  0.6838170000  -0.4586840000  0.0242780000
C  -0.6085510000  1.9452350000  -0.0297980000
C  1.6782950000  -1.5857570000  0.0903540000
H  1.4481500000  -2.4040970000  -0.5949020000
C  3.0159040000  -0.8873110000  -0.2457570000
H  3.1830830000  -0.9405380000  -1.3243230000
H  3.8695580000  -1.3592680000  0.2411940000
C  2.8257870000  0.5856100000  0.1648400000
H  3.1459230000  0.7583050000  1.1981330000
H  3.3743590000  1.2876040000  -0.4635530000
C  1.3345680000  0.7776400000  0.0639710000
N  0.7279830000  1.9540390000  0.0434820000
H  1.6983900000  -2.0111430000  1.1003310000
H  -1.0936600000  2.9168420000  -0.0512930000