13
charge=0, multiplicity=2, basis=def2-QZVPP, AUX_BASIS_CORR=rimp2-def2-QZVPPD, SCF_ALGORITHM=GDM, xc_grid=000099000590, mem_total=3750, num_basis=579, num_pairs=147127, num_threads=1
N  -0.0001160000  -0.0011980000  0.8264160000
C  1.1631160000  -0.3066450000  0.0907470000
C  -1.1629150000  0.3062530000  0.0909500000
O  -1.3614560000  1.4412550000  -0.2569720000
O  1.3631990000  -1.4411730000  -0.2577810000
C  -2.0710340000  -0.8615890000  -0.1385090000
C  2.0695780000  0.8626060000  -0.1381610000
H  -1.5088750000  -1.6853410000  -0.5843120000
H  -2.8918330000  -0.5581320000  -0.7853010000
H  -2.4585320000  -1.2114160000  0.8203320000
H  2.4567380000  1.2123970000  0.8208310000
H  1.5061950000  1.6858380000  -0.5833690000
H  2.8907060000  0.5606350000  -0.7852320000