22
charge=0, multiplicity=1, basis=def2-QZVPP, mem_total=15000, AUX_BASIS_CORR=rimp2-def2-QZVPPD, SCF_ALGORITHM=GDM, xc_grid=000099000590, num_basis=1038, num_pairs=380147, num_threads=4
C  -1.8490550000  -1.3651070000  0.0000460000
C  -1.3477500000  -0.0630620000  0.0000430000
C  0.0175200000  0.2070040000  -0.0000540000
C  0.9190070000  -0.8492330000  -0.0001400000
C  0.4419570000  -2.1576860000  -0.0001330000
C  -0.9201090000  -2.3988620000  -0.0000440000
H  0.3751630000  1.2253010000  -0.0000590000
H  -1.2742410000  -3.4230320000  -0.0000440000
N  2.3141800000  -0.6659500000  -0.0002460000
C  2.9986240000  0.5073330000  -0.0001800000
O  2.5414820000  1.6227900000  -0.0000490000
N  -2.2706730000  0.9877440000  0.0001330000
C  -2.3113410000  2.1847450000  0.0003090000
O  -2.4697850000  3.3381840000  0.0004690000
O  4.3296080000  0.2542980000  -0.0002880000
H  4.7738660000  1.1109140000  -0.0002430000
H  2.8823180000  -1.4985270000  -0.0003440000
C  -3.3270780000  -1.6228040000  0.0001600000
H  -3.8042710000  -1.1809960000  0.8777090000
H  -3.8044790000  -1.1805880000  -0.8770670000
H  -3.5326120000  -2.6933250000  -0.0000590000
H  1.1386140000  -2.9884450000  -0.0002010000