35
charge=1, multiplicity=1, basis=def2-QZVPP, mem_total=60000, AUX_BASIS_CORR=rimp2-def2-QZVPPD, SCF_ALGORITHM=GDM, xc_grid=000099000590, num_basis=1482, num_pairs=738600, num_threads=16
C  -1.5726220000  1.3010140000  -0.1836600000
N  -0.2752180000  1.0342120000  -0.1499220000
N  0.4052530000  0.0943610000  -0.5049000000
C  1.7787790000  0.0698880000  -0.2065280000
C  2.4706090000  -1.0344880000  -0.6978410000
C  2.4248780000  1.0616310000  0.5366370000
C  3.8270410000  -1.1514270000  -0.4448760000
H  1.9380880000  -1.7817490000  -1.2721410000
C  3.7757080000  0.9333840000  0.7826790000
H  1.8683630000  1.9133200000  0.9063980000
C  4.4746760000  -0.1704450000  0.2930890000
H  4.3779210000  -2.0029420000  -0.8219200000
H  4.2949670000  1.6908450000  1.3553630000
H  5.5354950000  -0.2607340000  0.4912570000
C  -2.3373790000  1.0357780000  1.0906480000
H  -2.0765760000  1.8684850000  1.7552700000
H  -3.3988730000  1.1618830000  0.8689470000
C  -1.9818310000  2.4677440000  -1.0328420000
H  -1.4189220000  2.5051020000  -1.9638180000
H  -3.0486040000  2.4236590000  -1.2433090000
H  -1.7889720000  3.3879130000  -0.4732200000
C  -2.4727900000  -0.3342270000  -1.5503590000
C  -1.6972310000  -1.3792050000  -1.1987610000
H  -3.3886810000  -0.1198230000  -1.0155070000
H  -2.3617740000  0.1207580000  -2.5265880000
C  -1.8376350000  -2.1745850000  0.0565710000
H  -2.2698260000  -3.1422340000  -0.2269000000
H  -0.8379580000  -2.4146630000  0.4320120000
H  -0.9372090000  -1.7164120000  -1.8940150000
C  -2.6700200000  -1.5510520000  1.1759800000
C  -2.0828100000  -0.2868810000  1.8158220000
H  -1.0104450000  -0.4218770000  1.9903830000
H  -2.5259260000  -0.1731270000  2.8068350000
H  -3.6916250000  -1.3577240000  0.8345590000
H  -2.7659310000  -2.3034760000  1.9607930000