34
charge=0, multiplicity=1, basis=def2-QZVPP, mem_total=60000, AUX_BASIS_CORR=rimp2-def2-QZVPPD, SCF_ALGORITHM=GDM, xc_grid=000099000590, num_basis=1506, num_pairs=738573, num_threads=16
C  -2.7302250000  1.0494900000  0.1242140000
C  -1.6281690000  0.7638600000  1.1500780000
C  -1.0462330000  -0.6520850000  1.0208530000
O  -2.0057270000  -1.6331710000  0.8563750000
C  -2.8908250000  -1.4143660000  -0.2458780000
C  -3.6788960000  -0.1285610000  -0.0444500000
H  -3.5586480000  -2.2724060000  -0.2709800000
O  -2.1935450000  1.3151240000  -1.1636510000
H  -3.2929880000  1.9245500000  0.4670290000
H  -1.6178310000  2.0837410000  -1.0881610000
O  -4.5703920000  0.0887640000  -1.1149350000
H  -4.2818920000  -0.2270040000  0.8617520000
H  -4.0672320000  0.5295400000  -1.8109900000
O  -0.1554360000  -0.6657430000  -0.1193990000
C  1.1081500000  -1.0472940000  0.0524630000
O  1.5848420000  -1.4039770000  1.1028280000
C  1.9013930000  -0.9365240000  -1.2243010000
C  3.2812380000  -0.3304750000  -0.9501780000
H  1.3487370000  -0.3269060000  -1.9357080000
H  2.0187410000  -1.9371750000  -1.6476570000
C  3.1264890000  1.0268700000  -0.2470460000
O  2.1630870000  1.7325440000  -0.3926960000
O  4.1563570000  1.3543220000  0.5170980000
H  4.7294340000  0.5563640000  0.5394730000
N  4.2185850000  -1.1449830000  -0.1843000000
H  3.7485130000  -0.1017460000  -1.9125810000
H  3.7310960000  -1.6340450000  0.5615570000
H  4.7089180000  -1.8156960000  -0.7607030000
N  -0.6388910000  1.8245050000  1.0993430000
H  -0.2278750000  2.0285240000  1.9990850000
H  0.1127510000  1.6510830000  0.4401590000
H  -2.3256130000  -1.3710090000  -1.1802300000
H  -2.1085490000  0.7867590000  2.1324950000
H  -0.4664440000  -0.9196200000  1.9006640000