14
charge=-1, multiplicity=1, basis=def2-QZVPP, AUX_BASIS_CORR=rimp2-def2-QZVPPD, SCF_ALGORITHM=GDM, xc_grid=000099000590, mem_total=7500, num_basis=663, num_pairs=183668, num_threads=2
O  -0.3268630000  -0.6955730000  1.3987230000
C  -0.4544510000  -0.4396000000  0.1015670000
C  -1.8514110000  0.1479730000  -0.1351820000
O  -2.8089630000  -0.8125700000  -0.2487770000
O  -2.1768990000  1.3152440000  -0.1376550000
C  0.5799760000  0.6084230000  -0.4548240000
C  1.9513460000  0.0598600000  -0.2931950000
H  0.4586710000  1.5326880000  0.1058480000
H  0.4071220000  0.7824040000  -1.5208730000
O  2.4556270000  -0.8088890000  -0.9688860000
O  2.6486420000  0.6239010000  0.7212360000
H  -3.6497150000  -0.3365880000  -0.2289430000
H  3.4653110000  0.1119240000  0.7898080000
H  -0.3665010000  -1.3272670000  -0.5731580000