31
charge=1, multiplicity=1, basis=def2-QZVPP, AUX_BASIS_CORR=rimp2-def2-QZVPPD, SCF_ALGORITHM=GDM, xc_grid=000099000590, mem_total=30000, num_basis=1308, num_pairs=580727, num_threads=8
C  2.0069230000  -1.0773920000  0.0300900000
N  0.6891980000  -0.9056080000  -0.0287440000
N  -0.0199780000  0.0592160000  -0.2158650000
C  -1.4165520000  -0.0537920000  -0.1073890000
C  -2.1282040000  1.1116090000  -0.3825520000
C  -2.0678760000  -1.2358350000  0.2560200000
C  -3.5098750000  1.0980100000  -0.2940020000
H  -1.5916240000  2.0088160000  -0.6633370000
C  -3.4442120000  -1.2363090000  0.3411300000
H  -1.4951390000  -2.1307570000  0.4629240000
C  -4.1629790000  -0.0723560000  0.0669830000
H  -4.0760740000  1.9953170000  -0.5059570000
H  -3.9678620000  -2.1414090000  0.6201980000
H  -5.2436300000  -0.0841260000  0.1362340000
C  2.5843210000  -1.1114400000  1.4164510000
H  2.1882470000  -0.3083310000  2.0360220000
H  2.3211720000  -2.0661980000  1.8805470000
H  3.6701420000  -1.0529950000  1.3725710000
C  2.6079030000  -1.9624730000  -1.0202420000
H  2.1501800000  -1.8030020000  -1.9948470000
H  3.6818900000  -1.7943180000  -1.0795290000
H  2.4506490000  -3.0048330000  -0.7269960000
C  2.8404860000  0.9107400000  -0.7517290000
C  1.8950770000  1.8299980000  -0.4479040000
H  3.6901220000  0.7744620000  -0.0929390000
H  2.9524320000  0.5750300000  -1.7745660000
C  1.8030540000  2.5530650000  0.8488850000
H  2.4933750000  2.1574180000  1.5941610000
H  2.0519930000  3.6067970000  0.6876840000
H  0.7876370000  2.5329150000  1.2494870000
H  1.2035540000  2.1370110000  -1.2238340000