20
charge=0, multiplicity=2, basis=def2-QZVPP, AUX_BASIS_CORR=rimp2-def2-QZVPPD, SCF_ALGORITHM=GDM, xc_grid=000099000590, mem_total=15000, num_basis=937, num_pairs=351844, num_threads=4
N  0.9609650000  0.6934920000  1.1744490000
H  1.0422440000  0.2779030000  2.0998800000
C  0.1148040000  -0.0142070000  0.3127270000
H  -0.9768150000  0.6791130000  0.2350720000
C  0.5331190000  -0.1361580000  -1.1445220000
C  -0.3264440000  -1.2902040000  1.0308780000
H  -0.2496180000  -0.6348500000  -1.7090440000
H  0.6910430000  0.8468880000  -1.5758360000
S  2.0357190000  -1.1492780000  -1.3523870000
O  0.0951360000  -1.5358140000  2.1444430000
H  2.9130420000  -0.1917950000  -1.0074330000
N  -1.1863320000  -2.0763110000  0.3565870000
H  -1.7052430000  -1.7164340000  -0.4309340000
H  -1.5403230000  -2.8879610000  0.8382670000
C  1.6064460000  1.8680750000  0.9067160000
H  2.1872110000  2.2260270000  1.7707620000
O  1.5642910000  2.4579620000  -0.1455360000
O  -2.0200700000  1.4766180000  0.2141820000
N  -2.9033390000  1.0624840000  -0.5940140000
O  -2.7143130000  0.0345920000  -1.1851500000