31
charge=1, multiplicity=1, basis=def2-QZVPP, mem_total=30000, AUX_BASIS_CORR=rimp2-def2-QZVPPD, SCF_ALGORITHM=GDM, xc_grid=000099000590, num_basis=1308, num_pairs=598886, num_threads=8
C  2.1063730000  -0.6343990000  0.0302090000
N  0.6676420000  -0.9620520000  0.0377570000
N  -0.0128130000  0.0613240000  -0.0659080000
C  -1.4430580000  0.0229460000  -0.0367480000
C  -2.1486120000  1.2161950000  0.0741280000
C  -2.0887580000  -1.2086250000  -0.1098770000
C  -3.5323150000  1.1695280000  0.1170540000
H  -1.6441620000  2.1699310000  0.1410740000
C  -3.4690940000  -1.2345150000  -0.0723270000
H  -1.5141360000  -2.1195870000  -0.2002350000
C  -4.1905110000  -0.0498420000  0.0420630000
H  -4.0951050000  2.0889620000  0.2090790000
H  -3.9872250000  -2.1824180000  -0.1349260000
H  -5.2723500000  -0.0795840000  0.0708760000
C  2.5421640000  -0.7472940000  1.4969890000
H  2.0418800000  -0.0177920000  2.1365340000
H  2.3267380000  -1.7450470000  1.8784830000
H  3.6174230000  -0.5813780000  1.5616920000
C  2.8291230000  -1.6554330000  -0.8360810000
H  2.4356380000  -1.6618980000  -1.8535510000
H  3.8887730000  -1.3987820000  -0.8816920000
H  2.7381600000  -2.6579680000  -0.4184250000
C  2.1491410000  0.8034040000  -0.5438530000
C  0.7672390000  1.3327030000  -0.1923700000
C  3.2914680000  1.6892960000  -0.0724110000
H  4.2548240000  1.2397570000  -0.3163090000
H  3.2533580000  2.6598080000  -0.5689150000
H  3.2573700000  1.8607320000  1.0044540000
H  0.3101810000  1.9588630000  -0.9540250000
H  0.7228160000  1.8397010000  0.7742790000
H  2.2030560000  0.7080170000  -1.6320010000