41
charge=0, multiplicity=1, basis=def2-QZVPP, mem_total=120000, AUX_BASIS_CORR=rimp2-def2-QZVPPD, SCF_ALGORITHM=GDM, xc_grid=000099000590, num_basis=1851, num_pairs=1043881, num_threads=32
C  1.1437400000  -2.4223010000  -0.4370600000
C  -0.9507420000  -0.8199460000  -0.1560520000
C  0.1112680000  -2.5319480000  -1.4046270000
C  0.8131530000  -2.0173550000  0.8804770000
C  -0.2783650000  -1.2312360000  1.0428180000
C  -0.9827770000  -1.7484530000  -1.2521690000
N  -2.0279140000  0.1228410000  -0.0337820000
C  -3.2825990000  -0.3527380000  0.4492340000
C  -1.7165360000  1.4201390000  -0.4088200000
O  -2.4881720000  2.3610840000  -0.3644720000
C  -0.3206610000  1.5138140000  -0.8883210000
C  0.3782940000  0.3909250000  -0.8610310000
C  1.6267880000  -0.1369520000  -1.1006240000
H  2.0775550000  -2.9465600000  -0.6019670000
H  0.2459610000  -3.1586730000  -2.2770360000
H  1.4736630000  -2.2508870000  1.7045680000
H  -0.5705730000  -0.8028200000  1.9918360000
H  -1.7874140000  -1.6945970000  -1.9725920000
H  1.8404870000  -0.5112320000  -2.0937440000
C  2.7775910000  0.1624590000  -0.2503690000
C  4.0595860000  -0.2311680000  -0.6509670000
C  2.6413800000  0.8263480000  0.9724870000
C  5.1636580000  0.0260770000  0.1426220000
H  4.1826370000  -0.7470730000  -1.5971110000
C  3.7479470000  1.0766290000  1.7692730000
H  1.6606240000  1.1520660000  1.2952020000
C  5.0136140000  0.6787490000  1.3611700000
H  6.1475370000  -0.2844530000  -0.1885750000
H  3.6209840000  1.5920470000  2.7139770000
H  5.8770850000  0.8792380000  1.9833450000
O  -3.4120460000  -1.5260170000  0.7309260000
N  -4.2498490000  0.5724790000  0.5553850000
H  -4.0274780000  1.5246080000  0.2883690000
C  -5.5634680000  0.1926690000  1.0321140000
H  -5.5093780000  -0.2289220000  2.0373590000
H  -6.1913820000  1.0817170000  1.0517250000
H  -6.0196110000  -0.5525210000  0.3778090000
C  0.1659170000  2.8435940000  -1.3747640000
H  -0.4142240000  3.1721050000  -2.2399930000
H  0.0345910000  3.6021700000  -0.6004590000
H  1.2182890000  2.7901790000  -1.6479220000