24
charge=0, multiplicity=1, basis=def2-QZVPP, mem_total=15000, AUX_BASIS_CORR=rimp2-def2-QZVPPD, SCF_ALGORITHM=GDM, xc_grid=000099000590, num_basis=1044, num_pairs=446911, num_threads=4
C  1.5668000000  -0.2287690000  -0.1395680000
N  1.2214770000  -0.6978900000  1.0929940000
N  0.0206140000  -1.1277840000  1.2263870000
C  -0.7726620000  -1.1016520000  0.1246060000
N  -0.2070940000  -1.2248560000  -1.1106020000
N  0.9883880000  -0.7916350000  -1.2473040000
C  0.3518280000  1.5562720000  -0.1491620000
C  -0.9395010000  1.2334900000  -0.0595640000
C  -0.3217880000  1.8251590000  1.1639210000
H  1.0016940000  2.0739570000  -0.8341880000
H  -0.5771660000  2.8485700000  1.4393420000
H  -0.0796930000  1.1817770000  2.0053780000
C  -2.1797830000  -1.5717900000  0.2955550000
H  -2.7459630000  -1.4260130000  -0.6217630000
H  -2.1759670000  -2.6382790000  0.5300500000
H  -2.6612640000  -1.0494870000  1.1216860000
C  2.9526280000  0.3119140000  -0.2917880000
H  3.1703320000  1.0212040000  0.5054880000
H  3.6726250000  -0.5063250000  -0.2292270000
H  3.0657330000  0.7935550000  -1.2620190000
C  -2.2010410000  1.3637920000  -0.8279080000
H  -2.1058770000  0.9186310000  -1.8186870000
H  -3.0499770000  0.9173420000  -0.3122350000
H  -2.4170590000  2.4297130000  -0.9506970000