10
charge=0, multiplicity=1, basis=def2-QZVPP, mem_total=3750, AUX_BASIS_CORR=rimp2-def2-QZVPPD, SCF_ALGORITHM=GDM, xc_grid=000099000590, num_basis=435, num_pairs=89631, num_threads=1
N  -1.9605620000  0.0135420000  0.0000070000
C  -0.7231910000  -0.7260920000  -0.0000520000
C  0.5398610000  0.1116440000  -0.0000020000
H  -0.6793660000  -1.3858500000  -0.8705490000
H  -0.6793640000  -1.3859830000  0.8703410000
O  0.5841110000  1.3109010000  0.0000200000
O  1.6437270000  -0.6596900000  0.0000080000
H  2.4126940000  -0.0725090000  0.0000260000
H  -2.0263270000  0.6134210000  -0.8133040000
H  -2.0264300000  0.6131220000  0.8135300000