22
charge=1, multiplicity=1, basis=def2-QZVPP, AUX_BASIS_CORR=rimp2-def2-QZVPPD, SCF_ALGORITHM=GDM, xc_grid=000099000590, mem_total=15000, num_basis=903, num_pairs=349484, num_threads=4
C  -1.7803870000  -0.2754920000  -1.0666610000
C  -1.1782430000  -1.1010090000  0.0774990000
C  -0.5440560000  0.9546120000  0.6010390000
C  -1.3194890000  1.1675380000  -0.7095300000
H  -1.4107000000  -0.6116360000  -2.0332780000
H  -2.8662300000  -0.3626710000  -1.0683050000
H  -0.7012210000  1.6275490000  -1.4797180000
H  -2.1601420000  1.8339640000  -0.5180480000
C  -1.3249360000  -0.1661360000  1.2847660000
H  -0.8587770000  -0.5380520000  2.1977070000
H  -2.3554910000  0.1206240000  1.4865140000
H  -1.5356750000  -2.1220660000  0.1724020000
H  -0.2678000000  1.8384900000  1.1684850000
N  0.6881790000  0.1883450000  0.2212250000
N  0.2943350000  -1.1071430000  -0.1396710000
C  1.8850210000  0.6261050000  0.1324530000
H  0.7840430000  -1.7891880000  0.4337080000
C  3.0166810000  -0.2019560000  -0.3299630000
H  2.6835390000  -0.9433310000  -1.0579550000
H  3.7926720000  0.4285640000  -0.7611030000
H  3.4650410000  -0.7316830000  0.5185910000
H  2.0256030000  1.6590480000  0.4325110000