17
charge=0, multiplicity=1, basis=def2-QZVPP, AUX_BASIS_CORR=rimp2-def2-QZVPPD, SCF_ALGORITHM=GDM, xc_grid=000099000590, mem_total=7500, num_basis=753, num_pairs=245017, num_threads=2
N  -0.6018430000  -1.0522550000  -0.3664650000
H  -0.0826370000  -1.6152080000  -1.0266770000
C  0.1814210000  -0.2502410000  0.5614990000
C  1.5348760000  -0.9157500000  0.7667180000
C  0.3588680000  1.1802840000  0.0252760000
H  2.1385300000  -0.3053900000  1.4439800000
H  1.3910100000  -1.8978530000  1.2190290000
O  1.4360400000  1.5711240000  -0.3968980000
H  2.3991820000  -0.2380980000  -0.8042050000
N  -0.7516970000  1.9378590000  0.0633430000
H  -0.7164340000  2.8578990000  -0.3470180000
H  -1.6413700000  1.5229500000  0.3176320000
C  -1.9451850000  -1.0116200000  -0.4119860000
H  -2.3807920000  -1.7134290000  -1.1389740000
O  -2.6326860000  -0.2775000000  0.2767380000
O  2.1904630000  -1.1212550000  -0.4672300000
H  -0.3631230000  -0.2050950000  1.5081600000