34
charge=1, multiplicity=1, basis=def2-QZVPP, AUX_BASIS_CORR=rimp2-def2-QZVPPD, SCF_ALGORITHM=GDM, xc_grid=000099000590, mem_total=60000, num_basis=1533, num_pairs=770181, num_threads=16
C  0.1638180000  4.2216620000  -0.0002540000
C  -0.8548580000  3.5713710000  0.6895400000
C  -0.9227750000  2.1934660000  0.6781610000
C  0.0558260000  1.4391300000  0.0000210000
C  1.0899380000  2.1152240000  -0.6782710000
C  1.1290270000  3.4942460000  -0.6899050000
H  0.2058110000  5.3040520000  -0.0003680000
H  -1.5911240000  4.1444750000  1.2378940000
H  -1.6983170000  1.6846910000  1.2348170000
H  1.8237340000  1.5477810000  -1.2348080000
H  1.9074870000  4.0084660000  -1.2383610000
C  -0.0000060000  -0.0000370000  0.0000740000
C  -1.2742870000  -0.6712630000  0.0001410000
C  -2.3769150000  -0.1138640000  -0.6781300000
C  -1.4382020000  -1.8957750000  0.6785590000
C  -3.5907490000  -0.7694910000  -0.6894620000
H  -2.2523990000  0.8052260000  -1.2348750000
C  -2.6654880000  -2.5258620000  0.6902470000
H  -0.6097510000  -2.3129500000  1.2351760000
C  -3.7380700000  -1.9689270000  0.0004870000
H  -4.4253630000  -0.3525270000  -1.2379030000
H  -2.7936330000  -3.4499190000  1.2388140000
H  -4.6964700000  -2.4737040000  0.0006270000
C  1.2184500000  -0.7679740000  0.0000050000
C  2.3609660000  -0.2976710000  0.6782490000
C  1.2869520000  -2.0015180000  -0.6783900000
C  3.5203660000  -1.0453550000  0.6895200000
H  2.3080460000  0.6282900000  1.2350200000
C  2.4617310000  -2.7247980000  -0.6901130000
H  0.4286090000  -2.3532250000  -1.2349320000
C  3.5742710000  -2.2526040000  -0.0004310000
H  4.3847990000  -0.6943080000  1.2379270000
H  2.5179030000  -3.6560040000  -1.2386830000
H  4.4906900000  -2.8301060000  -0.0006370000