22
charge=0, multiplicity=2, basis=def2-QZVPP, mem_total=15000, AUX_BASIS_CORR=rimp2-def2-QZVPPD, SCF_ALGORITHM=GDM, xc_grid=000099000590, num_basis=929, num_pairs=349725, num_threads=4
C  0.3641700000  0.1101670000  -0.8300490000
C  1.0972160000  1.3820600000  -0.5539220000
C  2.2807200000  1.2295720000  0.1261290000
C  2.6369410000  -0.0868360000  0.3870190000
H  2.9010920000  2.0624330000  0.4323360000
S  1.4874790000  -1.2324490000  -0.2489550000
H  3.5183870000  -0.4371700000  0.9003180000
Si  -1.3210610000  0.0148360000  0.0734900000
C  -2.0970040000  -1.6520850000  -0.2904090000
H  -3.0737170000  -1.7400160000  0.1923270000
H  -2.2446910000  -1.7983210000  -1.3634680000
H  -1.4705940000  -2.4678390000  0.0772690000
C  -1.0414000000  0.2403740000  1.9082180000
H  -1.9882060000  0.2073840000  2.4532390000
H  -0.3962260000  -0.5459840000  2.3046040000
H  -0.5655780000  1.2007490000  2.1174200000
C  -2.4009870000  1.3915290000  -0.6067340000
H  -1.9739770000  2.3752920000  -0.3986270000
H  -2.5296160000  1.3027910000  -1.6885260000
H  -3.3954980000  1.3626120000  -0.1540090000
H  0.1866940000  -0.0354740000  -1.9017960000
H  0.6891850000  2.3363220000  -0.8581900000