41
charge=0, multiplicity=1, basis=def2-QZVPP, mem_total=120000, AUX_BASIS_CORR=rimp2-def2-QZVPPD, SCF_ALGORITHM=GDM, xc_grid=000099000590, num_basis=1824, num_pairs=1095520, num_threads=32
C  -0.5188480000  0.2994200000  0.7287840000
C  0.3910670000  1.4209810000  0.4432080000
C  -0.0231780000  -0.9580990000  1.1526950000
C  1.4913970000  1.7703250000  1.3018410000
C  1.1724910000  -1.2555400000  1.8156550000
C  2.2879070000  0.9642920000  2.0529420000
C  2.1937130000  -0.4321080000  2.2202360000
H  1.7452550000  2.8258710000  1.2925740000
H  3.1043250000  1.4508760000  2.5775500000
H  2.9902470000  -0.8983400000  2.7907240000
H  1.2827860000  -2.3024900000  2.0815210000
C  0.8336120000  -1.3084350000  -1.3915750000
H  -0.7411730000  -1.7627950000  1.1095630000
C  1.0763730000  1.0019650000  -1.3321690000
H  -0.1472850000  2.3091990000  0.1401910000
C  1.8139970000  -0.2778450000  -1.1281580000
C  -0.0950810000  0.6496640000  -2.0606260000
H  1.5925220000  1.9294990000  -1.5376670000
C  -0.2505030000  -0.7346000000  -2.0399000000
H  0.9795760000  -2.3671790000  -1.2488790000
H  -0.7997950000  1.3567030000  -2.4737920000
H  -1.1083780000  -1.2730390000  -2.4162170000
C  3.1198670000  -0.4404490000  -0.8376890000
C  3.7544980000  -1.7925190000  -0.7164440000
C  4.0737580000  0.7091480000  -0.7296250000
H  3.5754400000  1.6732280000  -0.6743390000
H  4.7380670000  0.7165210000  -1.6008780000
H  4.7090710000  0.6003570000  0.1520780000
H  3.0319720000  -2.6046580000  -0.7093060000
H  4.3442010000  -1.8495580000  0.2015610000
H  4.4464180000  -1.9587180000  -1.5487350000
C  -1.8511940000  0.4694800000  0.3427820000
C  -2.2951210000  1.7532110000  -0.0835590000
N  -2.6111210000  2.8061710000  -0.4294850000
C  -2.8685900000  -0.5860000000  0.3506530000
O  -2.7098410000  -1.7570510000  0.6231950000
O  -4.0703850000  -0.1045970000  -0.0173790000
C  -5.1382150000  -1.0489920000  -0.0526040000
H  -4.9219950000  -1.8473920000  -0.7628800000
H  -5.2959730000  -1.4859340000  0.9335510000
H  -6.0133300000  -0.4855590000  -0.3654360000