40
charge=1, multiplicity=1, basis=def2-QZVPP, AUX_BASIS_CORR=rimp2-def2-QZVPPD, SCF_ALGORITHM=GDM, xc_grid=000099000590, mem_total=60000, num_basis=1605, num_pairs=906624, num_threads=16
C  -3.4649000000  -0.4155410000  -0.1066130000
C  -2.4139830000  -1.1783270000  0.6873290000
C  -1.0166650000  -1.0758040000  0.0624880000
H  -2.3872070000  -0.7852260000  1.7108630000
H  -2.6848680000  -2.2317960000  0.7686100000
C  -0.9413610000  -1.9997910000  -1.1601020000
H  -1.0738590000  -3.0371160000  -0.8479810000
H  0.0164040000  -1.9310400000  -1.6744410000
H  -1.7218300000  -1.7729840000  -1.8896530000
C  -0.6917340000  0.4093270000  -0.3601080000
C  -1.7158860000  1.4167610000  -0.1476520000
C  -3.1344710000  1.0646040000  -0.0614420000
H  -4.4618110000  -0.5738220000  0.3045730000
H  -3.5002280000  -0.7626920000  -1.1415170000
C  -1.3627990000  2.8397200000  -0.0568470000
C  0.0326370000  -1.4901160000  1.1057090000
C  1.4706340000  -1.4703890000  0.5842610000
H  -0.2202570000  -2.4900300000  1.4665120000
H  -0.0587510000  -0.8276250000  1.9725910000
C  0.7500650000  0.8624810000  -0.0725940000
H  -0.8277700000  0.4312580000  -1.4764160000
C  1.7628840000  -0.2567740000  -0.3278150000
H  0.8125560000  1.1872610000  0.9701640000
H  1.0127100000  1.7239370000  -0.6885450000
H  1.6922440000  -2.3849360000  0.0325610000
H  2.1479800000  -1.4690140000  1.4392470000
C  3.1883820000  0.2341770000  -0.1897160000
H  1.6421170000  -0.5658360000  -1.3692690000
C  4.0626300000  0.0367570000  -1.1690830000
H  3.7813790000  -0.4581840000  -2.0917830000
H  5.0944930000  0.3546850000  -1.0810020000
C  3.5671870000  0.9305880000  1.0885190000
H  3.2864160000  0.3491460000  1.9708360000
H  3.0742090000  1.9036890000  1.1755360000
H  4.6412900000  1.1044030000  1.1328760000
H  -3.4517910000  1.5175090000  0.8951470000
H  -3.6762330000  1.6727210000  -0.7995730000
H  -0.6714980000  3.1236820000  -0.8545470000
H  -0.7907750000  2.9809180000  0.8703800000
H  -2.2306550000  3.4950550000  -0.0531800000