27
charge=0, multiplicity=1, basis=def2-QZVPP, AUX_BASIS_CORR=rimp2-def2-QZVPPD, SCF_ALGORITHM=GDM, xc_grid=000099000590, mem_total=30000, num_basis=1161, num_pairs=434292, num_threads=8
C  -3.8186200000  0.0351280000  -0.8241980000
O  -4.6915300000  0.3578850000  0.2436700000
C  -4.4924370000  -0.4337190000  1.3925500000
H  -3.4906670000  -0.2985530000  1.8143010000
H  -4.6359360000  -1.4990020000  1.1668710000
C  -2.3957820000  0.4136400000  -0.5522510000
H  -2.2326010000  1.4604770000  -0.3116790000
C  -1.3817990000  -0.4467210000  -0.5924490000
H  -1.6088290000  -1.4873370000  -0.8172430000
H  -5.2351290000  -0.1231110000  2.1259020000
C  0.0402150000  -0.1652610000  -0.3624170000
C  0.9483890000  -1.2174170000  -0.3418640000
C  0.5430710000  1.1265250000  -0.1549370000
C  2.3061040000  -1.0167170000  -0.1167070000
H  0.5898820000  -2.2280800000  -0.5036620000
C  1.8834840000  1.3444310000  0.0699190000
H  -0.1268830000  1.9769230000  -0.1750360000
C  2.7781110000  0.2720780000  0.0922290000
H  2.9735560000  -1.8665500000  -0.1085510000
H  2.2721550000  2.3422930000  0.2285450000
O  4.0778590000  0.5890430000  0.3198130000
C  5.0273550000  -0.4566280000  0.3468250000
H  5.0677020000  -0.9821490000  -0.6121560000
H  5.9884620000  0.0142040000  0.5398190000
H  4.8082290000  -1.1724880000  1.1449300000
H  -4.2033790000  0.5927440000  -1.6810930000
H  -3.8857370000  -1.0368330000  -1.0590170000