14
charge=0, multiplicity=2, basis=def2-QZVPP, AUX_BASIS_CORR=rimp2-def2-QZVPPD, SCF_ALGORITHM=GDM, xc_grid=000099000590, mem_total=3750, num_basis=636, num_pairs=167676, num_threads=1
C  2.8922250000  0.9271870000  0.0000910000
C  1.8741220000  -0.1073810000  -0.0000240000
H  3.9257700000  0.6145550000  0.0000470000
H  2.6458010000  1.9811850000  0.0002180000
O  2.1470670000  -1.3021350000  -0.0001720000
N  0.5789490000  0.3254720000  0.0000430000
H  0.3403570000  1.3058400000  0.0001610000
C  -0.5058880000  -0.6147170000  -0.0000620000
C  -1.8113860000  0.1291230000  0.0000250000
H  -0.4709960000  -1.2725050000  -0.8739460000
H  -0.4709940000  -1.2727060000  0.8736710000
O  -1.9222180000  1.3259400000  0.0001630000
O  -2.8564800000  -0.7070850000  -0.0000680000
H  -3.6639640000  -0.1737030000  -0.0000060000