16
charge=-1, multiplicity=1, basis=def2-QZVPP, mem_total=7500, AUX_BASIS_CORR=rimp2-def2-QZVPPD, SCF_ALGORITHM=GDM, xc_grid=000099000590, num_basis=669, num_pairs=201356, num_threads=2
C  1.2349830000  1.2078970000  0.7691670000
C  1.2330330000  -0.0098030000  -0.1252980000
C  -0.0060970000  -0.2573660000  -0.9502540000
O  2.2229910000  -0.7139180000  -0.2156290000
C  -1.2760460000  -0.1981560000  -0.1097000000
C  -2.1006540000  0.8958430000  -0.3258960000
C  -1.3857290000  -1.2174360000  0.8241590000
H  1.9775330000  1.0791970000  1.5565040000
H  1.5153200000  2.0768860000  0.1633540000
H  0.2396210000  1.3927990000  1.1729880000
H  -0.6575870000  -2.0190440000  0.8600280000
H  -2.2350590000  -1.2794140000  1.4965420000
H  0.1132350000  -1.2315210000  -1.4293510000
H  -0.0461950000  0.5063430000  -1.7361240000
H  -3.0068360000  1.0436490000  0.2528270000
H  -1.8809000000  1.6165770000  -1.1047990000