36
charge=1, multiplicity=1, basis=def2-QZVPP, AUX_BASIS_CORR=rimp2-def2-QZVPPD, SCF_ALGORITHM=GDM, xc_grid=000099000590, mem_total=60000, num_basis=1485, num_pairs=778362, num_threads=16
C  1.2038540000  1.3505900000  0.0411440000
C  1.2037920000  -1.3506160000  0.0411390000
C  -0.3218950000  -1.2485170000  0.1116620000
C  -0.8480610000  0.0000340000  0.8188970000
C  -0.3218370000  1.2485600000  0.1116630000
H  -0.7356280000  -1.2682510000  -0.8969350000
H  -0.6726500000  -2.1455400000  0.6252960000
H  -0.5172480000  0.0000270000  1.8595130000
H  -0.7355680000  1.2683130000  -0.8969350000
H  -0.6725560000  2.1455980000  0.6252960000
N  1.7704310000  -0.0000250000  -0.4009170000
O  2.7237170000  -0.0000460000  -1.0929630000
C  1.6368990000  2.3839310000  -0.9893590000
H  1.1504390000  3.3245600000  -0.7308000000
H  2.7135460000  2.5440990000  -0.9894280000
H  1.3164950000  2.1052910000  -1.9939470000
C  1.8518690000  1.6568950000  1.4033230000
H  2.9376370000  1.5647720000  1.3586430000
H  1.6139260000  2.6957930000  1.6328960000
H  1.4708690000  1.0399540000  2.2123850000
C  1.6367880000  -2.3839720000  -0.9893700000
H  2.7134280000  -2.5441890000  -0.9894410000
H  1.1502860000  -3.3245800000  -0.7308140000
H  1.3163950000  -2.1053120000  -1.9939560000
C  1.8517950000  -1.6569560000  1.4033160000
H  1.6138050000  -2.6958440000  1.6328850000
H  2.9375680000  -1.5648820000  1.3586340000
H  1.4708240000  -1.0400010000  2.2123810000
N  -2.3011170000  0.0000770000  0.8722240000
C  -3.0929640000  0.0000730000  -0.2453640000
C  -4.5777470000  -0.0000580000  -0.0062930000
H  -5.0065090000  0.8777900000  -0.4904300000
H  -5.0060680000  -0.8790890000  -0.4886970000
H  -4.8521850000  0.0008810000  1.0483350000
O  -2.6090890000  0.0001010000  -1.3626100000
H  -2.7439900000  0.0000240000  1.7759920000