43
charge=0, multiplicity=1, basis=def2-QZVPP, AUX_BASIS_CORR=rimp2-def2-QZVPPD, SCF_ALGORITHM=GDM, xc_grid=000099000590, mem_total=60000, num_basis=1830, num_pairs=990996, num_threads=16
C  0.4778910000  2.1080120000  0.3213200000
H  0.1545220000  2.8015600000  1.1167170000
C  1.5077260000  1.1546110000  0.8859370000
C  0.0637580000  -0.8135830000  0.3678120000
H  -0.1605620000  -1.2998020000  -0.5831820000
H  -0.0032900000  -1.5775000000  1.1486490000
C  -1.0115240000  0.2586470000  0.5981330000
H  -0.9944710000  0.5637350000  1.6607400000
N  -0.6532490000  1.3930120000  -0.2471110000
C  2.5296960000  -0.8872060000  -0.1312880000
C  2.3317030000  1.5321060000  1.8592160000
C  3.8447020000  -0.2524340000  -0.2642740000
C  4.9814510000  -0.8714310000  -0.5848020000
C  1.4592490000  -0.2193530000  0.3410770000
C  6.2972820000  -0.1790910000  -0.7492820000
H  7.0441240000  -0.5788720000  -0.0564430000
H  6.6961130000  -0.3223360000  -1.7582840000
H  6.2075210000  0.8938650000  -0.5699570000
C  -1.7494350000  2.2798180000  -0.5741630000
H  -2.2114370000  2.7086500000  0.3343300000
H  -1.3489110000  3.1138220000  -1.1555850000
C  -2.3935920000  -0.2881620000  0.3118110000
C  -3.2322760000  0.2905650000  -0.6391770000
C  -2.7899440000  1.5247570000  -1.3786820000
H  -2.3557430000  1.2475390000  -2.3441270000
H  -3.6521880000  2.1652610000  -1.5801630000
H  0.9348320000  2.7090310000  -0.4720980000
C  -4.4876660000  -0.2685700000  -0.8723500000
H  -5.1376520000  0.1897120000  -1.6103160000
C  -2.8416430000  -1.3993070000  1.0261380000
H  -2.2036920000  -1.8381840000  1.7849370000
C  -4.9170410000  -1.3836110000  -0.1745180000
H  -5.8966180000  -1.8035270000  -0.3686450000
C  -4.0888950000  -1.9491300000  0.7875090000
H  -4.4175070000  -2.8127260000  1.3529920000
C  2.4268290000  -2.3171040000  -0.5888060000
H  2.7529740000  -2.4174990000  -1.6273180000
H  1.4177610000  -2.7123920000  -0.5088490000
H  3.0776650000  -2.9572900000  0.0139370000
H  3.0632540000  0.8512030000  2.2743370000
H  2.2917760000  2.5344900000  2.2720210000
H  3.8768720000  0.8195820000  -0.1046470000
H  4.9877780000  -1.9466190000  -0.7389280000