17
charge=0, multiplicity=1, basis=def2-QZVPP, mem_total=7500, AUX_BASIS_CORR=rimp2-def2-QZVPPD, SCF_ALGORITHM=GDM, xc_grid=000099000590, num_basis=807, num_pairs=263458, num_threads=2
O  2.1523030000  -1.8264380000  -0.1415500000
C  1.3879760000  -0.7861140000  0.3868490000
C  -0.0682320000  -0.9603600000  0.1365540000
C  -0.8725300000  0.1080760000  0.0830360000
C  -0.3211290000  1.4611400000  0.1282160000
C  0.9980880000  1.6996300000  0.1032270000
C  1.9332380000  0.5801930000  -0.0045440000
H  -0.4490250000  -1.9713100000  0.0689270000
H  -1.0342370000  2.2765590000  0.1295880000
H  1.4032550000  2.7014700000  0.0431500000
C  -2.3428820000  -0.0126700000  -0.0590100000
O  -3.0932690000  0.9259780000  -0.1199130000
O  -2.7699460000  -1.2860160000  -0.1125240000
H  -3.7315340000  -1.2630800000  -0.2117930000
O  3.0910880000  0.6770540000  -0.3495000000
H  3.0074570000  -1.4403470000  -0.3829020000
H  1.4754950000  -0.7672910000  1.4949550000