47
charge=0, multiplicity=1, basis=def2-QZVPP, mem_total=120000, AUX_BASIS_CORR=rimp2-def2-QZVPPD, SCF_ALGORITHM=GDM, xc_grid=000099000590, num_basis=1923, num_pairs=1149408, num_threads=32
C  3.1915700000  1.3170830000  0.1691290000
C  1.9048680000  1.2994120000  1.0175670000
C  1.0808460000  0.0191300000  0.8642580000
C  1.3688620000  -0.4662260000  -1.0171960000
C  3.7517040000  -0.0713900000  -0.1143570000
H  2.2237000000  1.2897480000  2.0670570000
H  3.9368460000  1.9317190000  0.6818020000
H  3.0002830000  1.8178860000  -0.7886090000
H  1.1182350000  0.5382110000  -1.3472870000
H  3.7519690000  -0.6364340000  0.8242300000
H  1.5871950000  -0.8744100000  1.2140570000
H  3.1738710000  -0.5088450000  -2.1326680000
H  2.9864860000  -1.8737980000  -1.0449940000
C  2.8452980000  -0.7925290000  -1.1248950000
C  5.1878290000  -0.0166100000  -0.6223410000
H  5.8578220000  0.4120300000  0.1265910000
H  5.2562180000  0.5980400000  -1.5251520000
H  5.5575790000  -1.0144780000  -0.8717020000
C  -0.2784050000  0.0105060000  1.2076320000
C  0.4356180000  -1.4478100000  -1.3643860000
C  -1.4881290000  -0.0177720000  -1.0061070000
C  -0.9364830000  -1.2211210000  -1.3823290000
C  -0.8852480000  -1.2493100000  1.5786070000
H  -0.8316310000  0.9206280000  1.3865650000
O  -0.3017760000  -2.3129690000  1.3922940000
H  -0.8691480000  0.8674470000  -1.0257520000
C  -2.9203990000  0.2408460000  -0.8643670000
C  -3.3157320000  1.4989830000  -0.6182440000
H  -2.5320900000  2.2500540000  -0.5396850000
C  -3.8576050000  -0.9263180000  -1.0054740000
H  -3.8178460000  -1.3299590000  -2.0207330000
H  -4.8897820000  -0.6575330000  -0.7940080000
H  -3.5759170000  -1.7348720000  -0.3279910000
C  -4.7027420000  2.0210980000  -0.4336510000
H  -5.4669800000  1.2493490000  -0.5054890000
H  -4.9275100000  2.7845900000  -1.1848160000
H  -4.8044000000  2.5062660000  0.5421320000
C  -2.2536140000  -1.2193610000  2.2216780000
H  -2.8791610000  -0.4236890000  1.8154220000
H  -2.1320890000  -1.0342640000  3.2928750000
H  -2.7389560000  -2.1867130000  2.0992330000
C  1.1159580000  2.5856870000  0.7872300000
H  0.3091860000  2.7166000000  1.5089630000
H  1.7779240000  3.4504760000  0.8723550000
H  0.6806680000  2.6083990000  -0.2166770000
H  0.7795060000  -2.4701900000  -1.4762040000
H  -1.5829450000  -2.0782820000  -1.5243910000