4
charge=0, multiplicity=1, basis=def2-QZVPP, AUX_BASIS_CORR=rimp2-def2-QZVPPD, SCF_ALGORITHM=GDM, xc_grid=000099000590, mem_total=3750, num_basis=201, num_pairs=20503, num_threads=1
O  0.8861750000  -0.5748950000  0.0000000000
N  0.0000000000  0.5092870000  0.0000000000
O  -1.1059820000  0.1487910000  0.0000000000
H  1.7584520000  -0.1561810000  0.0000000000