27
charge=0, multiplicity=1, basis=def2-QZVPP, AUX_BASIS_CORR=rimp2-def2-QZVPPD, SCF_ALGORITHM=GDM, xc_grid=000099000590, mem_total=30000, num_basis=1134, num_pairs=476250, num_threads=8
C  0.0017530000  -0.8619680000  -0.1328020000
C  0.2983050000  0.3254100000  -0.1196320000
C  -0.9885080000  -1.9436270000  -0.0976500000
H  -1.1591480000  -2.3014050000  -1.1186410000
H  -0.6087210000  -2.7994620000  0.4649690000
C  -0.0121090000  1.7563770000  -0.0977100000
H  0.6250320000  2.3049090000  -0.7953570000
H  0.1931300000  2.1611310000  0.8996970000
C  -2.3094640000  -1.4552370000  0.5105790000
H  -3.0258870000  -2.2804350000  0.4516670000
H  -2.1569760000  -1.2566200000  1.5762400000
C  -2.9295000000  -0.2128000000  -0.1507670000
H  -2.7666650000  -0.2593280000  -1.2332600000
H  -4.0112060000  -0.2904840000  -0.0145570000
C  -1.4883080000  1.9835160000  -0.4548240000
H  -1.6957530000  3.0514310000  -0.3369860000
H  -1.6320540000  1.7568680000  -1.5156560000
C  -2.5056340000  1.1809920000  0.3750460000
H  -3.4115960000  1.7892060000  0.4367530000
H  -2.1438870000  1.0891310000  1.4051080000
N  1.9415350000  -1.9047050000  -0.2101160000
N  2.5961350000  -0.9583430000  -0.1756340000
N  2.5252810000  0.2858860000  -0.2472140000
C  3.4724780000  1.0838720000  0.5174070000
H  3.1490490000  2.1194550000  0.4277420000
H  3.4869720000  0.8085830000  1.5761140000
H  4.4829710000  1.0079510000  0.1090320000