32
charge=0, multiplicity=1, basis=def2-QZVPP, mem_total=60000, AUX_BASIS_CORR=rimp2-def2-QZVPPD, SCF_ALGORITHM=GDM, xc_grid=000099000590, num_basis=1338, num_pairs=715538, num_threads=16
C  1.6739420000  0.5552660000  -0.3837130000
C  -0.7778590000  0.4916520000  -0.7257200000
C  -0.9119320000  1.8968290000  -0.0816710000
C  0.3988220000  2.5390110000  0.2873390000
C  1.5790050000  1.9382200000  0.1797550000
C  2.8036510000  -0.3877310000  0.0223850000
C  2.3012600000  -1.7668580000  -0.4811560000
C  0.7983090000  -1.5824960000  -0.8301390000
H  0.3398930000  3.5505090000  0.6780420000
H  2.4870740000  2.4601260000  0.4656110000
H  3.7614220000  -0.1042910000  -0.4168640000
H  2.4393530000  -2.5347190000  0.2814460000
H  0.6685170000  -1.4706270000  -1.9103310000
H  2.9336580000  -0.3893210000  1.1072840000
H  2.8607750000  -2.0968020000  -1.3574850000
H  0.1994120000  -2.4400250000  -0.5208550000
C  0.1735080000  -0.5445060000  1.3837960000
H  0.5694420000  0.2832920000  1.9737800000
H  0.7534440000  -1.4242880000  1.6685980000
C  -2.1966630000  -1.1857900000  0.6028670000
C  0.4032530000  -0.2728740000  -0.1253800000
C  -2.0918920000  -0.2471280000  -0.5790690000
O  -3.0007900000  -0.0908390000  -1.3597530000
C  -1.3046340000  -0.7649240000  1.7714550000
H  -3.2462280000  -1.2555420000  0.8914970000
H  -1.9080690000  -2.1774340000  0.2371800000
H  -1.7119530000  0.1527540000  2.2016890000
H  -1.3708320000  -1.5140720000  2.5625310000
H  -0.6091710000  0.6238070000  -1.7977080000
H  -1.4616200000  2.5414870000  -0.7724510000
H  -1.5356050000  1.8509540000  0.8178220000
H  1.7441800000  0.6588770000  -1.4762560000