14
charge=0, multiplicity=2, basis=def2-QZVPP, AUX_BASIS_CORR=rimp2-def2-QZVPPD, SCF_ALGORITHM=GDM, xc_grid=000099000590, mem_total=3750, num_basis=636, num_pairs=167676, num_threads=1
C  -2.8922300000  0.9271830000  0.0000290000
C  -1.8741210000  -0.1073790000  0.0000280000
H  -3.9257720000  0.6145380000  0.0000990000
H  -2.6458180000  1.9811840000  -0.0000450000
O  -2.1470650000  -1.3021340000  0.0000670000
N  -0.5789500000  0.3254740000  -0.0000420000
H  -0.3403570000  1.3058410000  -0.0000470000
C  0.5058880000  -0.6147170000  -0.0000360000
C  1.8113870000  0.1291230000  -0.0000180000
H  0.4709820000  -1.2726070000  0.8737690000
H  0.4710060000  -1.2725980000  -0.8738500000
O  1.9222210000  1.3259400000  -0.0000110000
O  2.8564810000  -0.7070850000  -0.0000120000
H  3.6639660000  -0.1737060000  -0.0000020000