41
charge=0, multiplicity=2, basis=def2-QZVPP, AUX_BASIS_CORR=rimp2-def2-QZVPPD, SCF_ALGORITHM=GDM, xc_grid=000099000590, mem_total=60000, num_basis=1783, num_pairs=1018061, num_threads=16
C  -1.5741260000  -1.5021870000  0.4223030000
C  -1.5353920000  -2.8268290000  -0.3672360000
S  -3.2166220000  -0.7968340000  0.7954900000
C  -4.0166000000  -0.7138790000  -0.8250340000
H  -4.1111520000  -1.6961470000  -1.2859280000
H  -3.5000770000  -0.0350470000  -1.5042100000
H  -5.0173230000  -0.3221120000  -0.6456090000
C  -0.8540000000  -1.5991910000  1.7585880000
H  -1.4235100000  -2.2209660000  2.4523750000
H  -0.7215060000  -0.6114720000  2.2040460000
H  0.1332600000  -2.0458830000  1.6301310000
C  -0.3167740000  -2.2973300000  -1.1435030000
H  -2.4052160000  -2.9587810000  -1.0094060000
H  -1.4029200000  -3.7295140000  0.2302190000
C  -0.6738230000  -0.8524120000  -0.7103850000
H  -0.2882910000  -2.4858430000  -2.2168660000
H  0.6183680000  -2.6397410000  -0.7065900000
C  0.4000880000  0.1338700000  -0.3617160000
C  0.1108730000  1.5299750000  -0.2338630000
C  1.7859240000  -0.3370800000  -0.1541290000
C  2.4210530000  -0.1607810000  1.0785230000
C  2.5042390000  -0.9555900000  -1.1804660000
C  3.7210570000  -0.5976540000  1.2819100000
C  4.4203890000  -1.2124410000  0.2517820000
C  3.8078340000  -1.3856400000  -0.9818660000
H  2.0383240000  -1.0849430000  -2.1498620000
H  1.8812480000  0.3221110000  1.8842020000
H  4.1899460000  -0.4566920000  2.2485450000
H  5.4371810000  -1.5515420000  0.4085140000
H  4.3484760000  -1.8544310000  -1.7955240000
C  -1.2162680000  2.0169860000  -0.2097570000
C  1.1463570000  2.4939890000  -0.1607760000
C  0.8673220000  3.8425730000  -0.0674800000
C  -0.4494240000  4.2947010000  -0.0400960000
C  -1.4849230000  3.3684140000  -0.1112410000
H  -2.0405090000  1.3195640000  -0.2182950000
H  -2.5148280000  3.7044000000  -0.0798900000
H  2.1767290000  2.1682150000  -0.1986700000
H  1.6840990000  4.5534180000  -0.0220670000
H  -0.6642500000  5.3535180000  0.0358170000
H  -1.3349140000  -0.4157230000  -1.4621150000