17
charge=0, multiplicity=2, basis=def2-QZVPP, AUX_BASIS_CORR=rimp2-def2-QZVPPD, SCF_ALGORITHM=GDM, xc_grid=000099000590, mem_total=7500, num_basis=672, num_pairs=210048, num_threads=2
C  -0.0068040000  1.1988900000  0.1321390000
C  -1.4769710000  0.7665430000  -0.0155930000
C  -1.4604750000  -0.7834360000  -0.0510900000
C  -0.0011440000  -1.1862440000  0.1979310000
C  0.8186380000  -0.0032720000  -0.3629910000
C  2.2409900000  0.0139290000  0.0499720000
H  -1.9049890000  1.1649100000  -0.9375970000
H  -2.0876670000  1.1501630000  0.8032870000
H  -1.7830550000  -1.1416800000  -1.0314380000
H  -2.1365120000  -1.2243530000  0.6831930000
H  0.2684430000  -2.1392590000  -0.2601260000
H  0.1978060000  -1.2706710000  1.2712450000
H  2.4978340000  0.1868860000  1.0894330000
H  3.0434320000  -0.2130800000  -0.6389420000
H  0.2358270000  1.3748590000  1.1851010000
H  0.2275420000  2.1165530000  -0.4095660000
H  0.7559350000  -0.0427920000  -1.4567920000