18
charge=-2, multiplicity=1, basis=def2-QZVPP, AUX_BASIS_CORR=rimp2-def2-QZVPPD, SCF_ALGORITHM=GDM, xc_grid=000099000590, mem_total=7500, num_basis=864, num_pairs=264116, num_threads=2
O  0.9324170000  0.5794270000  -0.5262530000
C  2.2589070000  0.6616230000  -0.2254390000
C  2.8550710000  1.8489550000  -0.3537480000
H  2.2852770000  2.7236540000  -0.6470400000
H  3.9158040000  1.9202370000  -0.1647690000
C  3.0760180000  -0.6174990000  0.1062620000
O  4.1538660000  -0.4246290000  0.7055220000
O  2.5809560000  -1.6881850000  -0.2978790000
C  0.1053860000  -0.3553440000  0.1833700000
C  -1.2913520000  0.1782810000  0.2384940000
C  -2.3772800000  -0.5118950000  -0.0924090000
C  -3.8137760000  -0.0056090000  0.0410280000
O  -3.9805780000  1.1493950000  0.4908700000
O  -4.6913000000  -0.8288330000  -0.3226150000
H  0.1593040000  -1.3304850000  -0.2992820000
H  0.5029420000  -0.4690540000  1.1986070000
H  -2.2802130000  -1.5225900000  -0.4847500000
H  -1.4238490000  1.1897650000  0.6147220000