24
charge=0, multiplicity=1, basis=def2-QZVPP, AUX_BASIS_CORR=rimp2-def2-QZVPPD, SCF_ALGORITHM=GDM, xc_grid=000099000590, mem_total=15000, num_basis=963, num_pairs=415000, num_threads=4
C  0.0041830000  -1.2974680000  0.7066830000
C  0.0041840000  1.2974680000  0.7066830000
C  1.2876300000  -1.2872260000  -0.1740490000
H  2.1505400000  -1.4450950000  0.4836450000
H  1.2664950000  -2.1482420000  -0.8510120000
H  0.0317170000  2.2150110000  1.3008320000
H  0.0317160000  -2.2150110000  1.3008310000
H  0.4443200000  0.0000000000  2.7214150000
C  1.2876300000  1.2872260000  -0.1740500000
H  2.1505400000  1.4450960000  0.4836440000
H  1.2664950000  2.1482410000  -0.8510130000
B  0.1369280000  0.0000000000  1.5659770000
C  -1.3163470000  1.2875980000  -0.0934300000
H  -2.1350310000  1.4508510000  0.6171860000
H  -1.3417900000  2.1431700000  -0.7778620000
C  -1.3163470000  -1.2875980000  -0.0934300000
H  -2.1350310000  -1.4508520000  0.6171840000
H  -1.3417890000  -2.1431700000  -0.7778640000
C  1.5153560000  0.0000000000  -0.9802720000
H  0.8797230000  0.0000000000  -1.8644690000
H  2.5417230000  0.0000000000  -1.3592040000
C  -1.6013900000  0.0000000000  -0.8784500000
H  -2.6519020000  0.0000000000  -1.1841680000
H  -1.0317510000  0.0000010000  -1.8071430000