8
charge=0, multiplicity=2, basis=def2-QZVPP, AUX_BASIS_CORR=rimp2-def2-QZVPPD, SCF_ALGORITHM=GDM, xc_grid=000099000590, mem_total=3750, num_basis=321, num_pairs=51627, num_threads=1
C  -1.1832960000  -0.1946920000  0.0000000000
C  0.1780770000  0.4781780000  0.0000010000
H  -1.2974850000  -0.8238960000  -0.8841910000
H  -1.9834100000  0.5496250000  0.0000220000
H  -1.2974660000  -0.8239270000  0.8841720000
H  0.3033530000  1.1549300000  0.8656200000
H  0.3033610000  1.1549080000  -0.8656350000
O  1.2503700000  -0.3640690000  0.0000010000