21
charge=0, multiplicity=2, basis=def2-QZVPP, AUX_BASIS_CORR=rimp2-def2-QZVPPD, SCF_ALGORITHM=GDM, xc_grid=000099000590, mem_total=15000, num_basis=846, num_pairs=315407, num_threads=4
C  -0.0424440000  -1.2514770000  -0.3960780000
C  -0.8156990000  0.0349900000  -0.1624940000
C  1.3090690000  -1.2274540000  0.3146220000
C  2.1310200000  -0.0213600000  -0.1354030000
C  1.3946700000  1.2900830000  0.1547860000
C  -0.0250060000  1.2644830000  -0.3043370000
C  -2.2736390000  0.0597050000  -0.5216510000
C  -1.8910840000  0.0144460000  0.9263930000
H  0.1226110000  -1.3742160000  -1.4727940000
H  -0.6382580000  -2.1074730000  -0.0674470000
H  1.8545690000  -2.1535940000  0.1148210000
H  1.1512860000  -1.1791760000  1.3984660000
H  2.3181140000  -0.0996660000  -1.2119500000
H  3.1069080000  -0.0162270000  0.3569510000
H  1.9255790000  2.1357160000  -0.2909540000
H  1.4188350000  1.4645730000  1.2447610000
H  -0.5526410000  2.2039950000  -0.4351500000
H  -2.6915520000  -0.8359230000  -0.9658230000
H  -2.6797240000  0.9847850000  -0.9127150000
H  -2.0315430000  -0.9135440000  1.4680460000
H  -2.0254980000  0.9102490000  1.5187640000