13
charge=0, multiplicity=1, basis=def2-QZVPP, AUX_BASIS_CORR=rimp2-def2-QZVPPD, SCF_ALGORITHM=GDM, xc_grid=000099000590, mem_total=3750, num_basis=552, num_pairs=138909, num_threads=1
C  -0.1652000000  -0.9101910000  -0.2692920000
C  0.9440170000  0.1072480000  -0.0692420000
O  0.8786490000  1.2717400000  -0.3536480000
N  -1.4634930000  -0.3523760000  -0.5351920000
C  -2.0677830000  0.3187650000  0.6072220000
H  -3.0407850000  0.7156970000  0.3164090000
H  -1.4644330000  1.1431830000  1.0094590000
H  -2.2353090000  -0.4102250000  1.4040480000
H  -1.4150330000  0.2771200000  -1.3266370000
O  2.0540310000  -0.4566680000  0.4427210000
H  2.7308880000  0.2322400000  0.5049970000
H  -0.2072870000  -1.5547670000  0.6120530000
H  0.1487640000  -1.5521230000  -1.0986990000