35
charge=0, multiplicity=1, basis=def2-QZVPP, mem_total=60000, AUX_BASIS_CORR=rimp2-def2-QZVPPD, SCF_ALGORITHM=GDM, xc_grid=000099000590, num_basis=1563, num_pairs=817916, num_threads=16
C  0.0507940000  2.1254080000  -0.9643550000
C  -0.3084230000  0.6768830000  -0.7634380000
C  -1.5847040000  0.3061690000  -0.3850830000
C  -2.5236040000  1.3009750000  0.2481010000
C  -2.2331100000  2.7421640000  -0.1624450000
C  -0.7450040000  3.0561510000  -0.0571330000
H  -0.1646480000  2.3684070000  -2.0124080000
H  1.1255250000  2.2675480000  -0.8540210000
H  -3.5569240000  1.0392510000  0.0138720000
H  -2.4285570000  1.2020300000  1.3381850000
H  -2.5607990000  2.8980640000  -1.1954630000
H  -2.8192330000  3.4217210000  0.4595010000
H  -0.4216280000  2.9298620000  0.9823080000
H  -0.5510550000  4.0967000000  -0.3260700000
C  -1.9079850000  -1.0691780000  -0.3052730000
H  0.2836860000  -0.0385510000  -1.3219720000
C  -3.2571740000  -1.4653410000  -0.0138730000
C  -0.9850100000  -1.6963890000  1.5847440000
C  -1.1704450000  -1.9941330000  -1.1218470000
N  -4.3292250000  -1.7771190000  0.2558360000
N  -0.5485040000  -2.7193540000  -1.7590940000
H  -1.7896640000  -1.4827070000  2.2809150000
C  0.0929000000  -0.8736810000  1.5526220000
H  -0.8643120000  -2.7399050000  1.3167310000
C  0.7731960000  0.0559070000  1.1009430000
C  1.9985770000  0.8632790000  1.1555890000
H  1.7862110000  1.9297050000  1.1791140000
H  2.5625470000  0.5851270000  2.0459960000
O  2.8049380000  0.6569360000  -0.0112710000
C  3.6598310000  -0.3970770000  0.0264430000
C  4.3214440000  -0.5938950000  -1.3018160000
O  3.8264710000  -1.0664190000  1.0057060000
H  4.6107490000  0.3622960000  -1.7360450000
H  5.1854360000  -1.2427330000  -1.1837090000
H  3.6077880000  -1.0690950000  -1.9786730000