19
charge=0, multiplicity=1, basis=def2-QZVPP, AUX_BASIS_CORR=rimp2-def2-QZVPPD, SCF_ALGORITHM=GDM, xc_grid=000099000590, mem_total=7500, num_basis=840, num_pairs=275415, num_threads=2
C  -3.4700880000  -0.5205340000  0.0000210000
N  -2.1178110000  0.0600950000  0.0000120000
C  -1.0755410000  -0.7225890000  -0.0000240000
O  -2.0930800000  1.3304040000  0.0000520000
C  0.3138330000  -0.3101020000  -0.0000170000
H  -3.9817420000  -0.1518530000  -0.8869450000
H  -3.4290580000  -1.6073990000  -0.0001430000
H  -3.9816260000  -0.1521190000  0.8871660000
C  1.2754730000  -1.3316020000  -0.0000600000
C  2.6255430000  -1.0377690000  -0.0000550000
C  3.0462370000  0.2877690000  -0.0000070000
C  2.1052920000  1.3065120000  0.0000350000
C  0.7469490000  1.0222130000  0.0000310000
H  0.9518300000  -2.3667950000  -0.0000970000
H  3.3527320000  -1.8405980000  -0.0000880000
H  4.1039230000  0.5220930000  -0.0000040000
H  2.4289290000  2.3404280000  0.0000710000
H  0.0102030000  1.8100160000  0.0000630000
H  -1.2920650000  -1.7810500000  -0.0000640000