25
charge=0, multiplicity=1, basis=def2-QZVPP, mem_total=15000, AUX_BASIS_CORR=rimp2-def2-QZVPPD, SCF_ALGORITHM=GDM, xc_grid=000099000590, num_basis=1074, num_pairs=426708, num_threads=4
C  -1.8130790000  -1.6183120000  -0.2473660000
C  -3.0011680000  -0.9646420000  0.4334460000
C  -3.0777620000  0.4554210000  -0.1055010000
C  -1.7504930000  1.1141560000  -0.0969800000
C  -0.5835330000  -0.8120240000  -0.0905170000
H  -1.6159850000  -2.6154180000  0.1563790000
H  -2.0253090000  -1.7376310000  -1.3155950000
H  -2.8447930000  -0.9479240000  1.5151440000
H  -3.9244210000  -1.5128520000  0.2346700000
H  -3.4373470000  0.4315020000  -1.1396680000
H  -3.7832270000  1.0642210000  0.4631510000
C  0.6445040000  -0.7847590000  0.0219630000
C  -1.1286250000  2.1683620000  -0.1192000000
H  -0.8993600000  3.2030620000  -0.1463640000
C  1.8650230000  -1.6220420000  0.1435310000
H  1.7256780000  -2.5590550000  -0.4009950000
C  3.0837270000  -0.8597400000  -0.3567910000
H  3.0530980000  -0.7819020000  -1.4465220000
H  4.0127650000  -1.3625360000  -0.0824750000
C  3.0098250000  0.5237610000  0.2607680000
H  3.2126570000  0.4698190000  1.3347280000
H  3.7217250000  1.2243820000  -0.1757530000
C  1.6424980000  1.0984500000  0.1025970000
N  1.0648060000  2.1161630000  0.0183900000
H  2.0053770000  -1.8805940000  1.1988730000