43
charge=0, multiplicity=1, basis=def2-QZVPP, AUX_BASIS_CORR=rimp2-def2-QZVPPD, SCF_ALGORITHM=GDM, xc_grid=000099000590, mem_total=120000, num_basis=1830, num_pairs=1030024, num_threads=32
C  0.8166280000  -1.7663430000  -0.6413770000
H  0.7228500000  -2.0474490000  -1.7114490000
C  1.8689890000  -0.7105910000  -0.5074420000
C  0.1459470000  0.9648850000  0.0608320000
H  -0.0666580000  1.0694350000  1.1302650000
H  -0.0196590000  1.9457520000  -0.3869380000
C  -0.8383500000  -0.0371210000  -0.5422650000
H  -0.7382470000  0.0149000000  -1.6448390000
N  -0.4603750000  -1.3680280000  -0.0854730000
C  2.6626280000  1.5376750000  0.0037470000
C  3.2880440000  -1.0994190000  -0.8225260000
C  3.9280610000  1.1182770000  0.0901540000
C  4.2921910000  -0.3431040000  0.0485210000
C  1.5749590000  0.5454870000  -0.1593180000
C  4.3641480000  -0.9119690000  1.4712990000
H  4.6789910000  -1.9591170000  1.4580420000
H  5.0772110000  -0.3515410000  2.0796560000
H  3.3878920000  -0.8519000000  1.9575480000
C  -1.4860870000  -2.3669480000  -0.3079180000
H  -1.7838770000  -2.4115500000  -1.3719840000
H  -1.0752730000  -3.3448290000  -0.0469940000
C  -2.2765570000  0.3073290000  -0.2038140000
C  -3.1518670000  -0.6379070000  0.3301250000
C  -2.6896020000  -2.0522370000  0.5587010000
H  -2.4127450000  -2.1880830000  1.6085950000
H  -3.5052820000  -2.7474090000  0.3438080000
H  1.1493190000  -2.6692710000  -0.1184700000
C  -4.4627970000  -0.2675850000  0.6250790000
H  -5.1371510000  -1.0103760000  1.0382970000
C  -2.7482520000  1.5956250000  -0.4572040000
H  -2.0860090000  2.3313730000  -0.8978450000
C  -4.9157440000  1.0184860000  0.3904500000
H  -5.9386380000  1.2874250000  0.6249160000
C  -4.0518980000  1.9552460000  -0.1627900000
H  -4.3947630000  2.9623320000  -0.3673350000
C  2.3116620000  2.9959520000  0.1012380000
H  1.6355060000  3.1922470000  0.9376720000
H  1.8104530000  3.3483220000  -0.8050280000
H  3.2094610000  3.5975940000  0.2439810000
H  3.4848390000  -0.8776400000  -1.8798400000
H  3.4260480000  -2.1781340000  -0.7008810000
H  5.2813950000  -0.4468270000  -0.4067670000
H  4.7243490000  1.8365160000  0.2609450000