41
charge=0, multiplicity=1, basis=def2-QZVPP, mem_total=120000, AUX_BASIS_CORR=rimp2-def2-QZVPPD, SCF_ALGORITHM=GDM, xc_grid=000099000590, num_basis=1824, num_pairs=1086367, num_threads=32
C  0.5654760000  0.2344570000  0.0544220000
C  -0.3965400000  1.3969290000  -0.0369860000
C  -0.0578920000  -1.1331760000  0.1807680000
C  -0.9344910000  1.5241170000  -1.4357960000
C  -0.5091850000  -1.6261420000  -1.1664480000
C  -1.1580100000  0.5452370000  -2.3162640000
C  -0.9613990000  -0.9019070000  -2.1935180000
H  -1.1728680000  2.5381310000  -1.7399820000
H  -1.5599310000  0.8525200000  -3.2766770000
H  -1.2431760000  -1.4585020000  -3.0818800000
H  -0.4596540000  -2.7025440000  -1.2942980000
C  -1.2401460000  -1.0828010000  1.2186000000
C  -1.5452920000  1.2291680000  1.0246090000
H  0.1379360000  2.3170230000  0.1988980000
C  -2.2499410000  -0.0731250000  0.7303060000
C  -0.9059290000  0.9152810000  2.3638910000
H  -2.1728850000  2.1176680000  1.0185940000
C  -0.7332600000  -0.3990700000  2.4740800000
H  -0.5662930000  1.6683740000  3.0631400000
H  -0.2271330000  -0.9139820000  3.2804460000
C  -3.4384780000  -0.2761420000  0.1737570000
C  -4.0020990000  -1.6462540000  -0.0780390000
C  -4.3300500000  0.8422390000  -0.2871780000
H  -3.9229390000  1.8289790000  -0.0773920000
H  -5.3134580000  0.7698640000  0.1874860000
H  -4.4923530000  0.7728060000  -1.3672360000
H  -3.3583420000  -2.4466050000  0.2802490000
H  -4.1548890000  -1.7982930000  -1.1509930000
H  -4.9802840000  -1.7531780000  0.4009030000
C  1.8961830000  0.4466780000  -0.0229930000
C  2.3880350000  1.7876750000  -0.1586340000
N  2.7495450000  2.8726450000  -0.2681470000
C  2.9338860000  -0.6226040000  0.0066620000
O  2.7396310000  -1.8117850000  0.0334740000
O  4.1577740000  -0.0875630000  -0.0037230000
C  5.2493470000  -1.0114930000  0.0085720000
H  5.2208450000  -1.6188850000  0.9128150000
H  5.2022250000  -1.6634730000  -0.8631860000
H  6.1462410000  -0.3992900000  -0.0159370000
H  0.6889170000  -1.8283190000  0.5508360000
H  -1.6193260000  -2.0904280000  1.3743680000