21
charge=0, multiplicity=2, basis=def2-QZVPP, AUX_BASIS_CORR=rimp2-def2-QZVPPD, SCF_ALGORITHM=GDM, xc_grid=000099000590, mem_total=15000, num_basis=846, num_pairs=320640, num_threads=4
C  -0.1532320000  1.0293530000  -0.0043890000
C  0.5935190000  -0.3262280000  -0.0312080000
C  -0.5140200000  -1.3075610000  -0.4677810000
C  -1.8090620000  -0.7290850000  0.1011440000
C  -1.6497900000  0.7775300000  -0.1271060000
C  0.4122460000  2.1964480000  0.1104440000
C  1.0818740000  -0.6637750000  1.3834960000
C  1.7736320000  -0.3256400000  -0.9984660000
H  -0.3088670000  -2.3276380000  -0.1349630000
H  -0.5718670000  -1.3242170000  -1.5610240000
H  -1.8853300000  -0.9451810000  1.1699450000
H  -2.7020350000  -1.1355200000  -0.3759880000
H  -2.2288710000  1.3931670000  0.5611090000
H  -1.9678360000  1.0379870000  -1.1414880000
H  0.2598870000  -0.6815170000  2.1016130000
H  1.8041350000  0.0789780000  1.7274610000
H  1.5650480000  -1.6449440000  1.3937600000
H  1.4555350000  -0.0426910000  -2.0038200000
H  2.2261740000  -1.3199770000  -1.0489020000
H  2.5464030000  0.3768250000  -0.6785430000
H  1.3966280000  2.6284780000  0.1940380000