24
charge=0, multiplicity=2, basis=def2-QZVPP, mem_total=15000, AUX_BASIS_CORR=rimp2-def2-QZVPPD, SCF_ALGORITHM=GDM, xc_grid=000099000590, num_basis=1071, num_pairs=428092, num_threads=4
H  0.4274510000  -2.5956020000  0.1818910000
C  1.0601180000  -1.7233310000  0.0907110000
C  2.6566340000  0.5254030000  -0.1394310000
C  0.4447570000  -0.4483450000  -0.0636840000
C  2.4288360000  -1.8508200000  0.1295060000
C  3.2461550000  -0.7270510000  0.0184170000
C  1.2865720000  0.7039250000  -0.1911780000
H  2.8688960000  -2.8336650000  0.2502860000
H  4.3238460000  -0.8225390000  0.0526580000
H  3.2903540000  1.4009460000  -0.2288600000
C  0.7461560000  2.0963090000  -0.3991380000
H  1.5782010000  2.7590920000  -0.6357340000
H  0.0563970000  2.1141590000  -1.2499180000
C  -0.9454540000  -0.4045070000  -0.0846220000
O  -1.7252950000  -1.5173410000  -0.0314820000
C  -3.0641320000  -1.0979940000  0.2362730000
C  -3.0682200000  0.3223570000  -0.3016320000
O  -1.7133530000  0.7246770000  -0.0739940000
H  -3.7464950000  -1.7707450000  -0.2781600000
H  -3.2446930000  -1.1284530000  1.3139800000
H  -3.7245760000  1.0042710000  0.2336450000
H  -3.2767090000  0.3577490000  -1.3737770000
O  0.1181870000  2.6567500000  0.7461250000
H  -0.7375180000  2.2264330000  0.8374700000