35
charge=0, multiplicity=1, basis=def2-QZVPP, mem_total=60000, AUX_BASIS_CORR=rimp2-def2-QZVPPD, SCF_ALGORITHM=GDM, xc_grid=000099000590, num_basis=1482, num_pairs=775221, num_threads=16
C  -0.3153610000  1.3644870000  1.1698970000
N  0.3093870000  0.0719140000  0.9146490000
C  -0.2998250000  -1.1418640000  1.4301950000
C  -0.9266580000  -2.0672050000  0.3590060000
C  -1.7974610000  -1.2624710000  -0.5504930000
C  -2.9350000000  0.4930680000  -0.0547930000
C  -2.5078900000  1.9272270000  -0.1220120000
C  -0.9737740000  2.0603220000  -0.0449370000
C  -3.1231610000  -1.5028020000  -0.9858880000
C  -3.7104660000  -0.2505850000  -0.9784170000
H  -2.8648630000  0.0617470000  0.9340100000
H  -1.2407520000  -0.5374380000  -1.1258530000
C  1.5645560000  0.0295720000  0.3286450000
C  2.1786160000  1.1932560000  -0.1680150000
C  3.4412010000  1.1486860000  -0.7364750000
C  4.1409100000  -0.0439490000  -0.8425450000
C  3.5434020000  -1.2003180000  -0.3627800000
C  2.2824000000  -1.1735640000  0.2091450000
H  -1.0586740000  1.2194410000  1.9552710000
H  0.4405690000  2.0305890000  1.5963020000
H  0.4304690000  -1.7073890000  2.0176940000
H  -1.0838540000  -0.8405740000  2.1243990000
H  -1.4874980000  -2.8533080000  0.8712560000
H  -0.1281440000  -2.5469780000  -0.2156840000
H  -2.8573110000  2.3923790000  -1.0473410000
H  -2.9455620000  2.4892820000  0.7125520000
H  -0.5302690000  1.6625950000  -0.9596010000
H  -0.7247230000  3.1255070000  -0.0185710000
H  -3.5766020000  -2.4727670000  -1.1635100000
H  -4.5081590000  0.1388880000  -1.6032810000
H  1.6696550000  2.1443180000  -0.1215180000
H  3.8793400000  2.0686460000  -1.1062280000
H  5.1250780000  -0.0726280000  -1.2919550000
H  4.0646950000  -2.1482030000  -0.4319650000
H  1.8619610000  -2.1006580000  0.5682870000