5
charge=0, multiplicity=2, basis=def2-QZVPP, AUX_BASIS_CORR=rimp2-def2-QZVPPD, SCF_ALGORITHM=GDM, xc_grid=000099000590, mem_total=3750, num_basis=204, num_pairs=21294, num_threads=1
C  -0.5736560000  0.0000240000  -0.0133980000
H  -0.8674530000  -0.0008710000  1.0534850000
H  -1.0013990000  0.9090590000  -0.4560800000
H  -1.0013300000  -0.9083980000  -0.4574250000
O  0.7890150000  0.0000080000  -0.0074490000