25
charge=0, multiplicity=1, basis=def2-QZVPP, AUX_BASIS_CORR=rimp2-def2-QZVPPD, SCF_ALGORITHM=GDM, xc_grid=000099000590, mem_total=30000, num_basis=1074, num_pairs=441224, num_threads=8
C  -1.2744070000  1.0858580000  1.0639360000
C  -2.3083030000  1.4454230000  -0.0109560000
C  -2.9240140000  0.0944220000  -0.3959570000
C  -1.7725290000  -0.8823590000  -0.2900980000
C  -0.7568860000  -0.2646660000  0.6036180000
H  -0.4774130000  1.8210070000  1.1641580000
H  -1.7620450000  0.9744240000  2.0381900000
H  -1.7961280000  1.8807390000  -0.8729380000
H  -3.0470470000  2.1677740000  0.3379270000
H  -3.6955730000  -0.1822320000  0.3313710000
H  -3.3871170000  0.0869360000  -1.3831750000
C  0.4117920000  -0.7649950000  0.8894190000
C  -1.6725540000  -2.0573310000  -0.9013220000
C  1.6097460000  -1.2216440000  1.1058000000
C  2.7953870000  -0.9262230000  0.2200540000
H  3.2178750000  -1.8681760000  -0.1419720000
H  3.5805830000  -0.4451150000  0.8108340000
C  2.4609180000  -0.0592820000  -0.9966090000
H  3.3310600000  0.0176930000  -1.6516820000
H  1.6533280000  -0.5167610000  -1.5732930000
C  2.0466250000  1.2956530000  -0.6429960000
N  1.7358800000  2.3656290000  -0.3695180000
H  -0.8086250000  -2.6955010000  -0.7555610000
H  -2.4544120000  -2.4178700000  -1.5586340000
H  1.7997030000  -1.8514610000  1.9720630000