40
charge=1, multiplicity=1, basis=def2-QZVPP, mem_total=60000, AUX_BASIS_CORR=rimp2-def2-QZVPPD, SCF_ALGORITHM=GDM, xc_grid=000099000590, num_basis=1605, num_pairs=901532, num_threads=16
C  -1.5212430000  -1.5460570000  -0.0887050000
C  -0.6889970000  -1.2735740000  1.1842880000
C  0.7041580000  -0.7057290000  1.1187100000
C  1.8290630000  -1.2420820000  0.2942100000
C  2.8381070000  -0.1627660000  -0.0222160000
C  2.4377620000  1.1028300000  0.0463430000
C  1.0627960000  1.4898220000  0.4184520000
C  0.1812300000  2.1388530000  -0.6272970000
C  -1.2879350000  2.0786010000  -0.2568500000
C  -1.9985370000  0.9662360000  -0.4379340000
C  -1.5158240000  -0.3233750000  -1.0372820000
H  -0.5152050000  -0.2078600000  -1.4641310000
C  -2.9487600000  -1.8438500000  0.3896840000
H  -3.6072740000  -2.0192430000  -0.4628340000
H  -3.3663860000  -1.0244400000  0.9769040000
H  -2.9693710000  -2.7414930000  1.0119220000
C  -1.0229170000  -2.7718000000  -0.8637660000
H  -0.9096090000  -3.6375430000  -0.2073620000
H  -0.0737130000  -2.6025750000  -1.3729660000
H  -1.7472870000  -3.0402250000  -1.6347610000
C  4.2019920000  -0.5954290000  -0.4489680000
H  4.8211830000  0.2526730000  -0.7368160000
H  4.1403630000  -1.2819250000  -1.2976400000
H  4.7060220000  -1.1305360000  0.3600710000
H  1.4899650000  -1.7173750000  -0.6249900000
H  2.3076430000  -2.0250790000  0.8948350000
H  3.0982660000  1.9170990000  -0.2366430000
H  0.4381770000  0.4271670000  0.5790660000
H  0.9398020000  1.9286160000  1.4101310000
H  -2.1624410000  -0.5755450000  -1.8836330000
H  -3.0454020000  0.9926370000  -0.1511380000
C  -1.8724530000  3.3293730000  0.3300470000
H  -1.3127820000  3.6573640000  1.2120460000
H  -2.9117710000  3.1864020000  0.6233080000
H  -1.8321190000  4.1499810000  -0.3920150000
H  0.5131490000  3.1822940000  -0.6846910000
H  0.3824440000  1.6942320000  -1.6020080000
H  1.0473720000  -0.3841820000  2.1006830000
H  -0.5580440000  -2.2165790000  1.7357000000
H  -1.2636180000  -0.6301790000  1.8546630000