40
charge=0, multiplicity=2, basis=def2-QZVPP, AUX_BASIS_CORR=rimp2-def2-QZVPPD, SCF_ALGORITHM=GDM, xc_grid=000099000590, mem_total=60000, num_basis=1726, num_pairs=964827, num_threads=16
N  2.2989880000  0.3310490000  0.1601010000
S  2.0107400000  -1.2427500000  -0.1861070000
O  0.4613680000  -1.1659960000  -0.6556450000
C  -0.2042460000  -2.4100720000  -0.9615720000
C  -1.6806270000  -2.1023650000  -1.0642900000
H  -0.0018460000  -3.1257020000  -0.1611890000
H  0.1957330000  -2.7939600000  -1.9017500000
C  -2.3025550000  -1.7006410000  0.2252190000
H  -2.1749480000  -3.0001380000  -1.4699750000
H  -1.8289690000  -1.3207000000  -1.8198000000
C  -3.6822260000  -1.1503470000  0.2660560000
H  -1.8019940000  -1.9591570000  1.1530090000
C  1.3889420000  1.1652960000  0.9849290000
C  0.2301420000  1.6399170000  0.1031110000
N  0.5933650000  2.0428630000  -1.1134150000
C  -1.0902400000  1.6787620000  0.5286430000
O  2.0557790000  -2.0497360000  1.0101020000
O  2.8316210000  -1.5871720000  -1.3214110000
C  -4.0946680000  -0.6226610000  1.6362970000
H  -4.4012030000  -1.9224920000  -0.0531180000
H  -3.7766670000  -0.3557320000  -0.4864220000
H  -4.0371000000  -1.4103010000  2.3911210000
H  -5.1187650000  -0.2447590000  1.6267140000
H  -3.4394390000  0.1899290000  1.9582970000
C  -2.0610030000  2.1381640000  -0.3471690000
C  -0.3403870000  2.4767770000  -1.9507360000
C  -1.6854670000  2.5425270000  -1.6173220000
H  0.0020180000  2.7860710000  -2.9330850000
H  -2.4108670000  2.9024440000  -2.3353400000
H  -1.3614420000  1.3413990000  1.5178930000
H  -3.0997530000  2.1719260000  -0.0405330000
C  2.2219720000  2.3877200000  1.3840780000
C  0.9319770000  0.4253390000  2.2358130000
H  0.2523220000  -0.3935930000  2.0066400000
H  0.4276560000  1.1240790000  2.9043190000
H  1.7941880000  0.0121120000  2.7565630000
H  2.5907060000  2.9045820000  0.4972730000
H  3.0706540000  2.0741500000  1.9927260000
H  1.6090120000  3.0870580000  1.9556190000
H  2.5125730000  0.8121270000  -0.7107610000