17
charge=0, multiplicity=2, basis=def2-QZVPP, AUX_BASIS_CORR=rimp2-def2-QZVPPD, SCF_ALGORITHM=GDM, xc_grid=000099000590, mem_total=7500, num_basis=807, num_pairs=260039, num_threads=2
C  1.0890110000  0.0098050000  0.0000000000
C  0.3173440000  -1.1382680000  0.0000150000
C  -1.0626150000  -1.0122530000  0.0000150000
C  -1.6518880000  0.2454870000  0.0000010000
C  -0.8507210000  1.3846250000  -0.0000150000
C  0.5282510000  1.2761390000  -0.0000140000
H  0.7991600000  -2.1055550000  0.0000250000
H  -1.6934810000  -1.8911940000  0.0000270000
H  -1.3064680000  2.3688710000  -0.0000280000
H  1.1696130000  2.1456830000  -0.0000250000
C  -3.1567560000  0.3927910000  0.0000030000
O  -3.8819950000  -0.7507280000  -0.0000060000
H  -3.4906140000  0.9978390000  -0.8642630000
H  -3.4906120000  0.9978130000  0.8642890000
N  2.5567120000  -0.1169190000  0.0000010000
O  3.2107740000  0.9079250000  0.0000020000
O  3.0261780000  -1.2378190000  -0.0000030000