31
charge=0, multiplicity=1, basis=def2-QZVPP, AUX_BASIS_CORR=rimp2-def2-QZVPPD, SCF_ALGORITHM=GDM, xc_grid=000099000590, mem_total=60000, num_basis=1416, num_pairs=678890, num_threads=16
N  -0.2210450000  1.1444070000  0.1789590000
C  -1.0365350000  0.0601270000  -0.0356660000
C  -2.3265360000  0.5290450000  0.1538560000
N  -2.3221000000  1.8674490000  0.4905300000
C  -1.0628930000  2.1875520000  0.5023090000
C  -3.3620990000  -0.4022800000  -0.0177070000
N  -3.0470400000  -1.6591630000  -0.3495590000
C  -1.7640010000  -1.9787270000  -0.5055420000
N  -0.7035240000  -1.1904750000  -0.3686850000
N  -4.6556660000  -0.0714660000  0.1385580000
H  -5.3594860000  -0.7799790000  0.0204570000
H  -4.9094590000  0.8643360000  0.4051990000
H  -1.5620320000  -3.0092970000  -0.7769130000
H  -0.6657620000  3.1651950000  0.7329380000
C  1.2235680000  1.1754800000  0.1935820000
C  1.9040730000  0.6622180000  -1.0950770000
C  2.6831970000  -0.5804040000  -0.6324970000
C  2.9008100000  -0.2700490000  0.8538940000
O  1.6813240000  0.3778700000  1.2536190000
H  1.5110570000  2.2228800000  0.3280930000
C  3.1464990000  -1.4524830000  1.7533180000
H  3.7201210000  0.4559530000  0.9370290000
O  2.7489760000  1.7169880000  -1.5277830000
H  1.1747640000  0.4008980000  -1.8649690000
H  3.1756550000  1.4594320000  -2.3494460000
O  1.9947800000  -1.7742450000  -0.8770400000
H  3.6392850000  -0.6480760000  -1.1563370000
H  1.0475730000  -1.6678780000  -0.6435930000
H  3.2173690000  -1.1277580000  2.7920450000
H  4.0816250000  -1.9433950000  1.4767230000
H  2.3377880000  -2.1753530000  1.6569630000