15
charge=0, multiplicity=2, basis=def2-QZVPP, AUX_BASIS_CORR=rimp2-def2-QZVPPD, SCF_ALGORITHM=GDM, xc_grid=000099000590, mem_total=3750, num_basis=612, num_pairs=176177, num_threads=1
O  -1.9581740000  0.0000030000  -0.1942470000
O  -0.8302730000  0.0000410000  -0.8429250000
C  0.3609090000  -0.0000030000  0.0455170000
C  1.5112480000  0.0000450000  -0.9425920000
C  0.3168020000  -1.2625720000  0.8870850000
C  0.3167930000  1.2624930000  0.8871960000
H  0.3089100000  2.1497790000  0.2518730000
H  1.1970860000  1.3057690000  1.5310490000
H  -0.5742850000  1.2713600000  1.5143100000
H  0.3089260000  -2.1498030000  0.2516840000
H  -0.5742750000  -1.2715020000  1.5141990000
H  1.1970970000  -1.3058960000  1.5309330000
H  1.4747560000  -0.8859460000  -1.5781300000
H  2.4601000000  0.0000270000  -0.4037210000
H  1.4747480000  0.8860890000  -1.5780560000