39
charge=1, multiplicity=1, basis=def2-QZVPP, AUX_BASIS_CORR=rimp2-def2-QZVPPD, SCF_ALGORITHM=GDM, xc_grid=000099000590, mem_total=60000, num_basis=1656, num_pairs=944217, num_threads=16
C  -2.0170440000  -2.6234650000  -0.7758510000
C  -0.7328290000  -1.7791210000  -0.6815850000
C  -1.8533220000  -1.1340350000  1.1105050000
C  -2.7934120000  -2.1903510000  0.5034550000
H  -2.5688450000  -2.4243150000  -1.6955910000
H  -1.7735720000  -3.6859100000  -0.7654810000
H  -3.7774050000  -1.7772440000  0.2890100000
H  -2.9186110000  -3.0203900000  1.1989660000
C  -0.4760530000  -1.7361720000  0.8250170000
H  0.3612600000  -1.1082930000  1.1132300000
H  -0.3620180000  -2.7301810000  1.2537880000
H  0.0933950000  -2.0668710000  -1.3267110000
H  -2.0821590000  -0.8051670000  2.1202390000
N  -1.8820890000  0.0050690000  0.1674510000
N  -1.0796060000  -0.3543920000  -0.9208620000
C  0.5614490000  1.4486120000  -0.5070510000
C  1.7471020000  0.6697930000  -0.2163650000
C  2.2923510000  0.5704600000  1.0708190000
C  2.3922700000  0.0097010000  -1.2712000000
C  3.4329450000  -0.1792490000  1.2936670000
H  1.8381360000  1.0958720000  1.9009570000
C  3.5316880000  -0.7405010000  -1.0468860000
H  1.9896240000  0.0935410000  -2.2746030000
C  4.0522360000  -0.8391660000  0.2382030000
H  3.8507860000  -0.2409420000  2.2904620000
H  4.0219820000  -1.2417320000  -1.8717400000
H  4.9488890000  -1.4197960000  0.4156440000
H  0.4001220000  1.6568250000  -1.5591840000
C  -1.8918620000  1.3193920000  0.4982550000
H  -2.2654010000  1.4823170000  1.5063820000
C  -0.2277490000  2.1478570000  0.4172680000
H  0.1577540000  2.2118550000  1.4290430000
H  -1.5611200000  -0.2051550000  -1.8042870000
C  -2.2786440000  2.4071240000  -0.4945300000
C  -1.0968990000  3.3013300000  -0.1065830000
H  -0.6519590000  3.8844830000  -0.9110430000
H  -1.3540070000  3.9800750000  0.7059540000
H  -3.2853500000  2.8044240000  -0.3637650000
H  -2.1829950000  2.0486140000  -1.5202280000