29
charge=0, multiplicity=1, basis=def2-QZVPP, AUX_BASIS_CORR=rimp2-def2-QZVPPD, SCF_ALGORITHM=GDM, xc_grid=000099000590, mem_total=30000, num_basis=1180, num_pairs=534558, num_threads=8
P  0.0000280000  -0.0344090000  -0.4914930000
O  0.0001150000  -0.2744080000  -1.9566770000
N  -1.3990530000  -0.6523320000  0.1944390000
N  -0.0003960000  1.5370280000  0.0953060000
N  1.3994120000  -0.6516070000  0.1944800000
C  1.6828080000  -0.5756910000  1.6148490000
H  1.3704850000  -1.4817850000  2.1501010000
H  2.7596610000  -0.4516270000  1.7675580000
H  1.1804260000  0.2821120000  2.0584120000
C  2.1338610000  -1.6902330000  -0.5106360000
H  3.2092880000  -1.5208080000  -0.3972430000
H  1.9031170000  -2.6897860000  -0.1194090000
H  1.8824390000  -1.6572310000  -1.5681010000
C  -2.1328970000  -1.6914020000  -0.5106520000
H  -3.2084230000  -1.5224920000  -0.3974310000
H  -1.8813480000  -1.6584030000  -1.5680880000
H  -1.9017160000  -2.6907920000  -0.1192680000
C  -1.6827160000  -0.5763500000  1.6147510000
C  -1.2103080000  2.3358700000  -0.0658340000
H  -1.2278850000  3.1199390000  0.6958110000
H  -1.2520310000  2.8116720000  -1.0529820000
H  -2.0937090000  1.7131260000  0.0532900000
C  1.2091380000  2.3364810000  -0.0656420000
H  1.2507910000  2.8122860000  -1.0527920000
H  1.2261800000  3.1205750000  0.6959890000
H  2.0928330000  1.7141890000  0.0536510000
H  -1.1807660000  0.2817210000  2.0582840000
H  -1.3700970000  -1.4822440000  2.1501660000
H  -2.7596470000  -0.4527220000  1.7672700000