42
charge=0, multiplicity=1, basis=def2-QZVPP, mem_total=120000, AUX_BASIS_CORR=rimp2-def2-QZVPPD, SCF_ALGORITHM=GDM, xc_grid=000099000590, num_basis=1908, num_pairs=1143818, num_threads=32
C  1.7797590000  -0.5549110000  -0.4418370000
C  1.7374670000  -1.4945150000  0.6047500000
C  2.7696410000  -2.4221340000  0.6887560000
C  3.8055420000  -2.4357890000  -0.2355020000
C  3.8264830000  -1.5122040000  -1.2713180000
C  2.8162410000  -0.5702690000  -1.3712380000
H  2.7604370000  -3.1497530000  1.4928710000
H  4.5963320000  -3.1708560000  -0.1472770000
H  4.6273650000  -1.5260010000  -2.0000720000
H  2.8147200000  0.1483790000  -2.1802470000
C  0.6452280000  0.3271670000  -0.5045950000
C  -0.5817790000  0.2989330000  -0.3969800000
C  -1.7550760000  -0.5329100000  -0.4276850000
C  -2.8330310000  -0.1980290000  -1.2541910000
C  -1.7756570000  -1.7202440000  0.3223720000
C  -3.9502280000  -1.0034410000  -1.3289330000
H  -2.7685890000  0.7065050000  -1.8456110000
C  -2.9320180000  -2.5009110000  0.2438110000
C  -4.0043430000  -2.1596140000  -0.5597370000
H  -4.7737850000  -0.7334230000  -1.9779830000
H  -2.9765950000  -3.4164380000  0.8242200000
H  -4.8775130000  -2.7996900000  -0.5943810000
C  -0.6582520000  -2.3038160000  1.1830480000
H  -1.1418710000  -2.6363430000  2.1056440000
H  -0.3267370000  -3.2216920000  0.6867660000
C  -1.1757640000  2.2881940000  0.4610550000
C  1.2960640000  2.3781950000  0.0381770000
N  0.8963900000  2.2688290000  1.3462180000
N  -0.3585900000  2.2261860000  1.5601740000
N  0.4979670000  3.0662740000  -0.8313390000
N  -0.7614600000  3.0146720000  -0.6205330000
C  2.7677620000  2.4347680000  -0.2040200000
H  3.2810060000  1.6398440000  0.3322900000
H  3.1436830000  3.3936320000  0.1591100000
H  2.9824120000  2.3654590000  -1.2681840000
C  -2.6417360000  2.2338230000  0.7406310000
H  -2.9073690000  1.3160430000  1.2621390000
H  -3.2135490000  2.3102380000  -0.1800430000
H  -2.9005080000  3.0776100000  1.3834850000
C  0.6035530000  -1.5197810000  1.6052830000
H  0.9796380000  -2.0219700000  2.4992380000
H  0.3416350000  -0.5083430000  1.9153160000