16
charge=-1, multiplicity=1, basis=def2-QZVPP, AUX_BASIS_CORR=rimp2-def2-QZVPPD, SCF_ALGORITHM=GDM, xc_grid=000099000590, mem_total=7500, num_basis=750, num_pairs=237034, num_threads=2
C  2.7512750000  -0.2766460000  -0.2142300000
C  2.1804040000  0.9672780000  -0.4539410000
C  0.8247580000  1.1723410000  -0.2239640000
C  0.0268510000  0.1395620000  0.2435110000
C  0.6011250000  -1.1047840000  0.4834620000
C  1.9541880000  -1.3158680000  0.2561780000
H  3.8090270000  -0.4386750000  -0.3933640000
H  2.7969420000  1.7814850000  -0.8220510000
H  0.3256090000  2.1211610000  -0.3894190000
H  -0.0226240000  -1.9189020000  0.8415920000
H  2.3900310000  -2.2922140000  0.4424500000
C  -1.4676710000  0.4547220000  0.5232880000
C  -2.2717770000  -0.6003490000  -0.2379240000
N  -2.9324380000  -1.3577750000  -0.8016010000
O  -1.8442900000  1.6882590000  0.2604620000
H  -1.6125130000  0.1279570000  1.5900160000