36
charge=1, multiplicity=2, basis=def2-QZVPP, AUX_BASIS_CORR=rimp2-def2-QZVPPD, SCF_ALGORITHM=GDM, xc_grid=000099000590, mem_total=60000, num_basis=1471, num_pairs=703902, num_threads=16
F  0.8168670000  -0.9606180000  -0.0050510000
N  -0.7284640000  -0.4222230000  -0.0077720000
C  -0.7796990000  0.6861590000  0.9556450000
C  -2.2710750000  1.0994750000  1.0736150000
C  -3.0976750000  0.3890300000  -0.0136140000
C  -1.5510550000  -1.5704090000  0.4031530000
C  -3.0307100000  -1.1245800000  0.2589630000
C  -4.5366360000  0.8822000000  -0.0167820000
H  -4.5851320000  1.9465880000  -0.2551190000
C  -1.0058670000  0.0102680000  -1.3856490000
C  -2.4179040000  0.6535940000  -1.3693400000
H  -0.1485670000  1.4826340000  0.5663480000
H  -0.3618720000  0.3265680000  1.8935720000
H  -2.3531180000  2.1815340000  0.9677450000
H  -2.6533680000  0.8377770000  2.0612600000
H  -1.2768830000  -1.8136360000  1.4275400000
H  -1.2909870000  -2.4075700000  -0.2405820000
H  -3.5701940000  -1.3705630000  1.1739650000
H  -3.5064610000  -1.6702840000  -0.5570980000
H  -5.0028200000  0.7351210000  0.9594760000
H  -5.1324180000  0.3450410000  -0.7573700000
H  -0.9471620000  -0.8726760000  -2.0186320000
H  -0.2220210000  0.7064180000  -1.6763220000
H  -3.0125850000  0.2340560000  -2.1811410000
H  -2.3408440000  1.7279260000  -1.5429050000
S  2.9675740000  -1.3302520000  -0.2905980000
C  3.4875830000  -0.1050040000  0.9152660000
C  3.5769280000  1.3299090000  0.4003450000
C  4.6546490000  1.5410540000  -0.6540310000
H  4.6779150000  2.5803790000  -0.9834760000
H  4.4840340000  0.9147990000  -1.5313590000
H  5.6425410000  1.2986420000  -0.2554140000
H  2.6002890000  1.6317880000  0.0080430000
H  3.7722370000  1.9721860000  1.2642590000
H  4.4792540000  -0.4593720000  1.2290320000
H  2.8431880000  -0.1923850000  1.7921910000