36
charge=1, multiplicity=1, basis=def2-QZVPP, AUX_BASIS_CORR=rimp2-def2-QZVPPD, SCF_ALGORITHM=GDM, xc_grid=000099000590, mem_total=60000, num_basis=1485, num_pairs=778362, num_threads=16
C  -1.2038180000  -1.3506020000  0.0411390000
C  -1.2038240000  1.3506010000  0.0411350000
C  0.3218650000  1.2485410000  0.1116630000
C  0.8480640000  0.0000030000  0.8188960000
C  0.3218700000  -1.2485360000  0.1116620000
H  0.7356020000  1.2682880000  -0.8969330000
H  0.6725970000  2.1455730000  0.6252970000
H  0.5172490000  0.0000000000  1.8595110000
H  0.7356040000  -1.2682810000  -0.8969350000
H  0.6726090000  -2.1455650000  0.6252960000
N  -1.7704360000  -0.0000030000  -0.4009080000
O  -2.7237420000  -0.0000050000  -1.0929280000
C  -1.6368370000  -2.3839450000  -0.9893720000
H  -1.1503460000  -3.3245630000  -0.7308250000
H  -2.7134790000  -2.5441490000  -0.9894370000
H  -1.3164470000  -2.1052850000  -1.9939590000
C  -1.8518260000  -1.6569320000  1.4033180000
H  -2.9375980000  -1.5648460000  1.3586360000
H  -1.6138470000  -2.6958220000  1.6328920000
H  -1.4708480000  -1.0399780000  2.2123810000
C  -1.6368450000  2.3839380000  -0.9893800000
H  -2.7134870000  2.5441380000  -0.9894470000
H  -1.1503580000  3.3245580000  -0.7308360000
H  -1.3164520000  2.1052760000  -1.9939650000
C  -1.8518350000  1.6569330000  1.4033120000
H  -1.6138630000  2.6958250000  1.6328820000
H  -2.9376070000  1.5648410000  1.3586290000
H  -1.4708560000  1.0399830000  2.2123770000
N  2.3011200000  0.0000010000  0.8722240000
C  3.0929670000  0.0000090000  -0.2453640000
C  4.5777500000  0.0000000000  -0.0062920000
H  5.0062480000  -0.8785980000  -0.4893180000
H  5.0063410000  0.8782830000  -0.4898030000
H  4.8521870000  0.0002650000  1.0483380000
O  2.6090910000  -0.0000020000  -1.3626090000
H  2.7439930000  0.0000740000  1.7759910000