17
charge=0, multiplicity=1, basis=def2-QZVPP, mem_total=7500, AUX_BASIS_CORR=rimp2-def2-QZVPPD, SCF_ALGORITHM=GDM, xc_grid=000099000590, num_basis=807, num_pairs=271372, num_threads=2
N  -0.2346020000  2.1286040000  0.1308930000
C  1.0010410000  1.7645140000  -0.0345370000
N  1.1695350000  0.4097260000  -0.2266520000
C  -0.0861870000  -0.1295270000  -0.1508890000
C  -0.9534920000  0.9477700000  0.0653230000
C  -2.2950810000  0.6207730000  0.1768120000
N  -2.6749220000  -0.6513090000  0.0828350000
N  -0.4291900000  -1.4048080000  -0.2342850000
C  -1.7422380000  -1.5879270000  -0.1116940000
H  -2.0948740000  -2.6112340000  -0.1726040000
H  -3.0637820000  1.3679460000  0.3438740000
H  1.8502050000  2.4333810000  -0.0366470000
C  2.3858180000  -0.3637640000  -0.4033280000
O  2.6429880000  -1.1966390000  0.6846780000
H  1.9843140000  -1.9012310000  0.6891470000
H  2.2881480000  -0.9356790000  -1.3295110000
H  3.2171730000  0.3334050000  -0.4913510000