30
charge=0, multiplicity=2, basis=def2-QZVPP, AUX_BASIS_CORR=rimp2-def2-QZVPPD, SCF_ALGORITHM=GDM, xc_grid=000099000590, mem_total=30000, num_basis=1386, num_pairs=638669, num_threads=8
O  -2.0456660000  -1.2945030000  0.2382450000
C  -3.1870560000  -0.8592980000  -0.5759790000
C  -3.1027000000  0.6661160000  -0.5755540000
C  -1.6008270000  0.9033720000  -0.4890440000
C  -1.1785470000  -0.2223910000  0.4682510000
C  -4.4343390000  -1.4244890000  -0.0247900000
H  -3.0079290000  -1.2261480000  -1.5909940000
H  -4.8784670000  -0.9685760000  0.8481730000
H  -4.8378920000  -2.3478990000  -0.4156290000
O  -3.7379500000  1.1916820000  0.5662220000
O  -1.3409060000  2.1930930000  -0.0172310000
N  0.1913910000  -0.6717700000  0.2327800000
H  -1.2565020000  0.1214590000  1.5044370000
C  1.2942140000  0.1350440000  0.1425430000
C  0.6607080000  -1.9660950000  0.1845980000
H  -1.1407920000  0.7281560000  -1.4693280000
H  -3.5339240000  1.0845690000  -1.4903810000
H  -3.2862030000  2.0185570000  0.7800960000
H  -0.3706130000  2.2655340000  0.1017290000
N  1.9559740000  -2.0406050000  0.0553060000
C  2.3732630000  -0.7274690000  0.0292270000
C  3.6364530000  -0.1278290000  -0.0885910000
N  3.7178410000  1.2083130000  -0.0813030000
C  2.5995230000  1.9212800000  0.0332600000
N  1.3533230000  1.4739420000  0.1480050000
N  4.7636530000  -0.8499960000  -0.2084640000
H  4.7220670000  -1.8548020000  -0.2072680000
H  5.6459110000  -0.3727790000  -0.2804140000
H  2.7235750000  2.9988070000  0.0310100000
H  -0.0224850000  -2.7976840000  0.2428860000