26
charge=0, multiplicity=1, basis=def2-QZVPP, mem_total=30000, AUX_BASIS_CORR=rimp2-def2-QZVPPD, SCF_ALGORITHM=GDM, xc_grid=000099000590, num_basis=1158, num_pairs=519861, num_threads=8
C  2.5796650000  -1.2464780000  0.3309290000
C  1.8675720000  -0.5209950000  1.4670290000
C  0.7560050000  0.4189540000  0.9596510000
C  -0.1713920000  -0.3293930000  0.0384260000
C  0.4715260000  -1.1266770000  -1.0536630000
C  1.5805360000  -2.0364540000  -0.5076640000
H  3.3420350000  -1.9141890000  0.7383070000
H  3.0992540000  -0.5210460000  -0.3035390000
H  2.5728200000  0.0635320000  2.0628460000
H  1.4179320000  -1.2552930000  2.1426240000
H  -0.2718980000  -1.7023420000  -1.6038380000
H  0.9141460000  -0.4147930000  -1.7581460000
H  2.0783770000  -2.5294790000  -1.3448780000
H  1.1310650000  -2.8264160000  0.1028310000
C  -1.5085050000  -0.2806290000  0.2003140000
C  -2.1208440000  0.4975150000  1.2356510000
C  -2.4035820000  -0.9905340000  -0.6639730000
N  -2.6100280000  1.1215140000  2.0662630000
N  -3.1195160000  -1.5612170000  -1.3569690000
C  0.4976660000  2.6917770000  -1.9392320000
C  0.9229310000  2.1781320000  -0.8248220000
C  1.3381190000  1.6508850000  0.2878110000
H  -0.3049030000  3.4208160000  -1.9487100000
H  0.9328510000  2.4114200000  -2.8923720000
H  2.1447880000  2.1385950000  0.8297780000
H  0.1921590000  0.7704990000  1.8273120000