17
charge=0, multiplicity=1, basis=def2-QZVPP, AUX_BASIS_CORR=rimp2-def2-QZVPPD, SCF_ALGORITHM=GDM, xc_grid=000099000590, mem_total=7500, num_basis=780, num_pairs=247879, num_threads=2
C  0.0431240000  -1.2100670000  -0.0039950000
C  -1.3408160000  -1.1989610000  -0.0101620000
C  -2.0527420000  0.0000000000  -0.0102470000
C  -1.3408170000  1.1989610000  -0.0101540000
C  0.0431240000  1.2100670000  -0.0039880000
C  0.7148840000  0.0000000000  -0.0000370000
H  0.6047530000  -2.1332890000  -0.0052620000
H  0.6047530000  2.1332890000  -0.0052500000
H  -1.8786880000  2.1396200000  -0.0171120000
H  -1.8786890000  -2.1396190000  -0.0171260000
C  -3.5548660000  0.0000000000  0.0143590000
N  2.1856850000  0.0000000000  0.0032830000
O  2.7510720000  1.0767430000  0.0049330000
O  2.7510720000  -1.0767430000  0.0049520000
H  -3.9601140000  0.8843450000  -0.4785370000
H  -3.9202030000  -0.0000060000  1.0451150000
H  -3.9601130000  -0.8843400000  -0.4785470000