52
charge=0, multiplicity=2, basis=def2-QZVPP, mem_total=120000, AUX_BASIS_CORR=rimp2-def2-QZVPPD, SCF_ALGORITHM=GDM, xc_grid=000099000590, num_basis=2071, num_pairs=1282172, num_threads=32
C  1.2575620000  -0.2733070000  -2.2985130000
C  2.4437980000  0.3847900000  -2.0953860000
H  2.4398550000  1.4660630000  -2.1894820000
Si  -0.0839690000  0.0084620000  -0.1525680000
H  0.4824380000  0.2962350000  -2.8026460000
Si  0.4220800000  2.1471850000  0.6469080000
Si  0.5038620000  -1.6473370000  1.3939160000
Si  -2.3570480000  -0.1500410000  -0.6998390000
C  0.3340990000  3.4225770000  -0.7392270000
H  0.5626210000  4.4211090000  -0.3553190000
H  1.0469040000  3.2029770000  -1.5365490000
H  -0.6617310000  3.4574210000  -1.1856640000
C  -0.8073530000  2.6552720000  1.9853710000
H  -0.5591560000  3.6435090000  2.3840890000
H  -1.8251410000  2.7032390000  1.5909760000
H  -0.8085820000  1.9481210000  2.8174860000
C  2.1572130000  2.1776150000  1.3843220000
H  2.4033820000  3.1776330000  1.7527150000
H  2.2464380000  1.4840060000  2.2237140000
H  2.9093230000  1.9014060000  0.6421940000
C  -0.0919030000  -1.1686860000  3.1200170000
H  -1.1704010000  -0.9981960000  3.1390580000
H  0.1363390000  -1.9611040000  3.8393600000
H  0.3947040000  -0.2546910000  3.4685810000
C  -0.2947360000  -3.2902790000  0.9247390000
H  0.0130310000  -3.6162640000  -0.0711670000
H  -0.0095800000  -4.0719280000  1.6348310000
H  -1.3849570000  -3.2214990000  0.9297080000
C  2.3707110000  -1.8936250000  1.4780950000
H  2.7761930000  -2.2508570000  0.5298960000
H  2.8854850000  -0.9635010000  1.7284380000
H  2.6207350000  -2.6307310000  2.2467760000
C  -2.6738230000  -1.5999820000  -1.8632950000
H  -2.3273330000  -2.5435500000  -1.4358920000
H  -3.7442790000  -1.6990920000  -2.0657420000
H  -2.1682660000  -1.4615370000  -2.8219160000
C  -3.4047750000  -0.3985970000  0.8505980000
H  -4.4685790000  -0.4329930000  0.5964430000
H  -3.1540950000  -1.3338260000  1.3563250000
H  -3.2564500000  0.4141530000  1.5651020000
C  -2.9356030000  1.4273580000  -1.5565230000
H  -3.9801600000  1.3333980000  -1.8673050000
H  -2.8647280000  2.2921360000  -0.8930000000
H  -2.3416920000  1.6430900000  -2.4479180000
C  1.1648090000  -1.7712790000  -2.4785750000
H  0.1337140000  -2.1160100000  -2.4134840000
H  1.5492000000  -2.0551550000  -3.4642060000
H  1.7418060000  -2.3157060000  -1.7314960000
C  3.7149000000  -0.2272270000  -1.6085780000
H  3.7496960000  -1.3050250000  -1.7682920000
H  4.5760070000  0.2143560000  -2.1164100000
H  3.8589160000  -0.0507120000  -0.5353090000