31
charge=0, multiplicity=1, basis=def2-QZVPP, mem_total=60000, AUX_BASIS_CORR=rimp2-def2-QZVPPD, SCF_ALGORITHM=GDM, xc_grid=000099000590, num_basis=1389, num_pairs=721698, num_threads=16
C  0.2312340000  -1.4267830000  1.0534770000
C  -0.3620810000  -0.5056070000  0.0189460000
C  0.5038460000  0.5585790000  -0.6309390000
C  1.9819220000  0.0904850000  -0.7075060000
C  2.0354630000  -1.2250890000  -1.4642060000
C  1.8943030000  -2.2370400000  -0.6154780000
C  1.7248480000  -1.6991680000  0.7948740000
H  0.1125660000  -0.9430270000  2.0299360000
H  -0.3403310000  -2.3551630000  1.0931340000
H  2.1202840000  -2.3517620000  1.5734690000
C  2.4459000000  -0.3505900000  0.6846910000
H  1.8126400000  -3.2842070000  -0.8774330000
H  2.0887580000  -1.2971180000  -2.5430610000
C  -1.6656760000  -0.5927670000  -0.3143060000
H  3.5276490000  -0.4918390000  0.6946150000
H  2.1750130000  0.3530410000  1.4731480000
H  2.5921980000  0.8776370000  -1.1493060000
C  -0.6228610000  2.1388010000  2.4539440000
C  -2.2556470000  0.3052800000  -1.2595890000
C  -2.5363440000  -1.5599980000  0.2797840000
N  -2.7074060000  1.0372470000  -2.0205180000
N  -3.2264440000  -2.3402240000  0.7635240000
C  -0.1202870000  2.0287060000  1.2602590000
C  0.3582560000  1.9122970000  0.0553760000
C  0.7775010000  3.1111650000  -0.7550190000
H  1.8255360000  3.0397870000  -1.0566740000
H  0.1734020000  3.1759340000  -1.6641860000
H  0.6477500000  4.0308910000  -0.1873460000
H  0.1435740000  0.6966760000  -1.6547910000
H  -1.6893210000  2.2719230000  2.6032040000
H  0.0049640000  2.1084360000  3.3384020000