16
charge=0, multiplicity=2, basis=def2-QZVPP, AUX_BASIS_CORR=rimp2-def2-QZVPPD, SCF_ALGORITHM=GDM, xc_grid=000099000590, mem_total=7500, num_basis=736, num_pairs=235836, num_threads=2
N  -0.6418710000  -1.0936210000  -0.2989290000
H  0.0132840000  -1.5124450000  -0.9467650000
C  -0.1073840000  -0.1132450000  0.6306700000
H  -0.7438670000  -0.1314470000  1.5186810000
C  1.3210670000  -0.4581990000  1.0222660000
C  -0.1588020000  1.3000750000  0.0219320000
H  1.7024740000  0.2858400000  1.7197200000
H  1.3338130000  -1.4306760000  1.5246810000
S  2.4445920000  -0.6050110000  -0.3787020000
O  0.8536690000  1.8690010000  -0.3383250000
N  -1.3976570000  1.8227200000  -0.0663860000
H  -2.2084020000  1.2571200000  0.1558530000
H  -1.5090640000  2.7122870000  -0.5266340000
C  -1.9623010000  -1.3237850000  -0.4287650000
H  -2.1978800000  -2.1101290000  -1.1615440000
O  -2.8264970000  -0.7343920000  0.1953030000