22
charge=0, multiplicity=2, basis=def2-QZVPP, AUX_BASIS_CORR=rimp2-def2-QZVPPD, SCF_ALGORITHM=GDM, xc_grid=000099000590, mem_total=15000, num_basis=876, num_pairs=296376, num_threads=4
C  -1.8888850000  -0.3107830000  -0.0791250000
C  -1.2301980000  1.0257500000  0.2028200000
C  0.1795840000  1.2105410000  -0.3470190000
H  -1.2267620000  1.1736910000  1.2894640000
H  -1.8880470000  1.8072220000  -0.1913020000
C  1.2096430000  0.3432840000  0.2884540000
H  0.4585260000  2.2689030000  -0.2187220000
H  0.1779650000  1.0556770000  -1.4345640000
C  2.5866170000  0.2497070000  -0.2657030000
H  1.0171860000  -0.0525810000  1.2816800000
N  -1.3423220000  -1.3083660000  -0.6364640000
C  -3.3235830000  -0.4148140000  0.3579310000
H  -3.4178460000  -0.1997780000  1.4261310000
H  -3.7008790000  -1.4152000000  0.1566010000
H  -3.9404140000  0.3166070000  -0.1718730000
C  3.4226170000  -0.8632890000  0.3592510000
H  3.1067730000  1.2125870000  -0.1295450000
H  2.5348730000  0.1125970000  -1.3537810000
H  4.4293400000  -0.8883630000  -0.0619940000
H  2.9617020000  -1.8389950000  0.1911450000
H  3.5157990000  -0.7211360000  1.4387020000
H  -0.3667420000  -1.1150440000  -0.8663420000