21
charge=0, multiplicity=1, basis=def2-QZVPP, AUX_BASIS_CORR=rimp2-def2-QZVPPD, SCF_ALGORITHM=GDM, xc_grid=000099000590, mem_total=15000, num_basis=913, num_pairs=342118, num_threads=4
Cl  -2.0161130000  -0.9285190000  -0.8755650000
C  -1.1933100000  0.2953190000  0.2368680000
C  0.3098920000  0.1349050000  0.0770560000
C  -1.6264580000  -0.0371420000  1.6602900000
C  -1.7229030000  1.6595020000  -0.1751870000
C  0.9024930000  -1.1112190000  0.2858520000
C  1.1328980000  1.2144170000  -0.2234140000
H  -1.3242660000  -1.0439870000  1.9440290000
H  -2.7094630000  0.0434800000  1.7592840000
H  -1.1548240000  0.6679660000  2.3492360000
H  -1.4524440000  1.9005650000  -1.2026960000
H  -1.3265380000  2.4318790000  0.4877150000
H  -2.8093190000  1.6691100000  -0.0948620000
C  2.2739730000  -1.2714920000  0.1983080000
C  3.0875750000  -0.1844550000  -0.0994150000
C  2.5119000000  1.0565670000  -0.3102970000
H  0.7107490000  2.1947500000  -0.3951170000
H  2.7108950000  -2.2499420000  0.3575300000
H  4.1613210000  -0.3086820000  -0.1696870000
H  3.1330800000  1.9119820000  -0.5471470000
H  0.2783730000  -1.9707050000  0.4959600000