22
charge=1, multiplicity=1, basis=def2-QZVPP, AUX_BASIS_CORR=rimp2-def2-QZVPPD, SCF_ALGORITHM=GDM, xc_grid=000099000590, mem_total=15000, num_basis=957, num_pairs=316391, num_threads=4
C  2.6087190000  -0.2568960000  0.0000050000
O  3.6472620000  0.4930390000  0.0000750000
C  4.9768580000  -0.0827110000  0.0000470000
H  4.9167780000  -1.1707820000  -0.0000650000
H  5.4781350000  0.2809660000  0.8932580000
C  1.3362250000  0.2821310000  0.0000340000
H  1.2332060000  1.3590140000  0.0001170000
C  0.2597530000  -0.5748470000  -0.0000430000
H  0.4788990000  -1.6406440000  -0.0001230000
H  5.4781730000  0.2811460000  -0.8930700000
C  -1.1212520000  -0.2369480000  -0.0000300000
C  -1.5791690000  1.0964400000  0.0000680000
C  -2.0612580000  -1.2856620000  -0.0001200000
C  -2.9295170000  1.3612920000  0.0000750000
H  -0.8756820000  1.9187040000  0.0001380000
C  -3.4136520000  -1.0131480000  -0.0001120000
H  -1.7141970000  -2.3124570000  -0.0001960000
C  -3.8455320000  0.3085190000  -0.0000140000
H  -3.2824660000  2.3842100000  0.0001510000
H  -4.1331260000  -1.8212390000  -0.0001810000
H  -4.9069140000  0.5250720000  -0.0000080000
H  2.7620490000  -1.3373360000  -0.0000760000