38
charge=0, multiplicity=2, basis=def2-QZVPP, AUX_BASIS_CORR=rimp2-def2-QZVPPD, SCF_ALGORITHM=GDM, xc_grid=000099000590, mem_total=60000, num_basis=1625, num_pairs=797946, num_threads=16
C  -2.2818530000  -2.1550690000  0.3314780000
C  -2.5704250000  -0.7215400000  0.5183790000
C  -3.1163270000  1.8304860000  -0.3684830000
C  -4.4648060000  2.1228450000  0.2684030000
O  -2.4898900000  -0.1570880000  1.5837600000
Cl  -0.2142400000  -2.1653340000  0.0630870000
H  -2.6401480000  -2.6117120000  -0.5829070000
H  -2.3966700000  -2.7456460000  1.2315870000
H  -2.9334210000  2.4688110000  -1.2334860000
H  -2.3045590000  1.9780070000  0.3430170000
H  -4.6253460000  1.4857850000  1.1378950000
H  -5.2796110000  1.9606200000  -0.4389900000
H  -4.5021070000  3.1637880000  0.5993910000
C  1.9654540000  -1.7236660000  -0.1406110000
C  2.2480160000  -0.9863250000  1.1398770000
C  2.0114530000  -0.8788970000  -1.3837190000
C  2.5503230000  -3.0961840000  -0.2513160000
H  2.3397840000  -3.6949350000  0.6356510000
H  3.6413720000  -3.0178130000  -0.3531660000
H  2.1714270000  -3.6221990000  -1.1283110000
C  1.5663450000  0.3803050000  1.2112860000
H  3.3376160000  -0.8420530000  1.1978910000
H  1.9614160000  -1.5972220000  1.9987840000
C  1.3441330000  0.4842200000  -1.2181740000
H  3.0721780000  -0.7214380000  -1.6306380000
H  1.5685480000  -1.4186950000  -2.2236310000
N  1.8141960000  1.1369300000  -0.0049270000
H  0.4882490000  0.2454200000  1.3336790000
H  1.9249290000  0.9297060000  2.0763620000
C  2.5360020000  2.2920400000  -0.0917220000
H  0.2596490000  0.3621700000  -1.1589180000
H  1.5769210000  1.1338980000  -2.0571450000
O  2.7739330000  2.8251310000  -1.1630210000
C  3.0296220000  2.9073630000  1.2010740000
H  2.2054910000  3.1375040000  1.8787420000
H  3.5475650000  3.8272970000  0.9436880000
H  3.7225380000  2.2446000000  1.7234970000
S  -2.9608180000  0.1317780000  -0.9997330000