23
charge=0, multiplicity=2, basis=def2-QZVPP, AUX_BASIS_CORR=rimp2-def2-QZVPPD, SCF_ALGORITHM=GDM, xc_grid=000099000590, mem_total=15000, num_basis=987, num_pairs=365094, num_threads=4
C  3.5875110000  -0.8370450000  1.1430920000
N  3.0292300000  -0.3815920000  -0.0995340000
H  4.5258250000  -1.3619480000  0.9653590000
H  2.8953480000  -1.5262750000  1.6489910000
H  3.7712040000  -0.0057480000  1.8388130000
C  1.8744520000  0.3721210000  0.0565480000
C  1.4915160000  1.3112590000  -1.0633680000
H  1.5514980000  0.6487380000  1.0603880000
C  0.7124810000  0.0542420000  -0.9189740000
C  -0.6769050000  0.0100140000  -0.4030620000
C  -1.4837310000  -1.0827240000  -0.7181930000
C  -1.2111800000  1.0142840000  0.4046650000
C  -2.5095320000  0.9254910000  0.8834030000
C  -3.3030790000  -0.1673270000  0.5611810000
C  -2.7840910000  -1.1715090000  -0.2437220000
H  -1.0843310000  -1.8716630000  -1.3455270000
H  -3.3934570000  -2.0287270000  -0.5041760000
H  -0.6127130000  1.8791100000  0.6659900000
H  -2.9049040000  1.7166750000  1.5093310000
H  -4.3179920000  -0.2340840000  0.9334280000
H  2.1959050000  1.3696810000  -1.8817390000
H  1.0200170000  2.2452560000  -0.7857650000
H  0.9643390000  -0.7326970000  -1.6177690000