22
charge=0, multiplicity=1, basis=def2-QZVPP, AUX_BASIS_CORR=rimp2-def2-QZVPPD, SCF_ALGORITHM=GDM, xc_grid=000099000590, mem_total=15000, num_basis=1038, num_pairs=413011, num_threads=4
C  1.1797770000  1.2341780000  -0.0638480000
C  2.4004400000  0.5725210000  -0.1250090000
C  2.4298020000  -0.8066170000  -0.0308580000
C  1.2564590000  -1.5508990000  0.1280550000
C  0.0449530000  -0.9051190000  0.1999020000
C  -0.0225060000  0.5018700000  0.1016500000
C  -1.2881920000  1.2121290000  0.1309880000
C  -2.5684310000  0.4233610000  0.2884800000
C  -2.4532410000  -1.0291590000  -0.1005060000
H  -3.3676780000  0.9125870000  -0.2658260000
H  -2.8320390000  0.4610580000  1.3533130000
C  -1.2087160000  -1.7197080000  0.4006550000
H  -1.3520120000  -1.8882010000  1.4759810000
H  -1.1279440000  -2.6963300000  -0.0743980000
H  3.3035390000  1.1571030000  -0.2529350000
H  1.3274910000  -2.6285330000  0.1918100000
O  -1.3593290000  2.4356640000  0.0337920000
O  -3.3016790000  -1.5971360000  -0.7365430000
O  3.5837700000  -1.5060480000  -0.0890470000
H  4.3311380000  -0.9119750000  -0.2082850000
O  1.1835740000  2.5594030000  -0.1681690000
H  0.2447540000  2.8638780000  -0.1169800000