19
charge=0, multiplicity=1, basis=def2-QZVPP, AUX_BASIS_CORR=rimp2-def2-QZVPPD, SCF_ALGORITHM=GDM, xc_grid=000099000590, mem_total=15000, num_basis=840, num_pairs=283088, num_threads=4
O  -1.9129910000  1.2242450000  -0.6767800000
C  -2.2853160000  0.2659890000  -0.0525550000
O  -3.5594030000  -0.1694050000  -0.1047820000
C  -1.4451810000  -0.5859850000  0.8549320000
C  -0.0107430000  -0.1006300000  0.9936180000
C  0.8072150000  -0.2877310000  -0.2962770000
H  0.4703970000  -0.6666440000  1.7973250000
H  0.0084920000  0.9527130000  1.2763720000
C  2.2083830000  0.2514330000  -0.0623470000
O  2.2317660000  1.5922150000  0.0278680000
N  0.8044830000  -1.6766670000  -0.7118850000
H  -4.0382720000  0.4149780000  -0.7090850000
H  0.3444320000  0.3224530000  -1.0735640000
H  1.4817290000  -2.2057180000  -0.1718560000
H  1.0717010000  -1.7664670000  -1.6840990000
H  3.1451180000  1.8581000000  0.2055440000
O  3.1962360000  -0.4229640000  0.0576400000
H  -1.9433350000  -0.6196760000  1.8269170000
H  -1.4626490000  -1.6042540000  0.4598500000