16
charge=-1, multiplicity=1, basis=def2-QZVPP, AUX_BASIS_CORR=rimp2-def2-QZVPPD, SCF_ALGORITHM=GDM, xc_grid=000099000590, mem_total=7500, num_basis=669, num_pairs=180467, num_threads=2
C  -1.9533100000  1.3648470000  -0.1108710000
C  -1.6575450000  -0.1153430000  0.1035540000
C  -0.7059760000  -0.4605050000  1.0794120000
O  -2.1466660000  -0.9249620000  -0.7154060000
C  0.9568710000  -0.5165450000  -0.1750980000
C  2.0171060000  0.0375000000  0.1666960000
C  3.4194870000  0.2728100000  -0.2324420000
H  -3.0336730000  1.5291940000  -0.0645730000
H  -1.4564160000  2.0052510000  0.6201440000
H  -1.6202930000  1.6456590000  -1.1147880000
H  -0.6440420000  -1.5010260000  1.3769090000
H  -0.3780860000  0.2732870000  1.8025200000
H  4.1113620000  -0.1451540000  0.5070650000
H  3.6943980000  -0.1569560000  -1.2130530000
H  3.6448510000  1.3439880000  -0.2752160000
H  0.3954250000  -1.0911310000  -0.9032660000