52
charge=0, multiplicity=1, basis=def2-QZVPP, mem_total=120000, AUX_BASIS_CORR=rimp2-def2-QZVPPD, SCF_ALGORITHM=GDM, xc_grid=000099000590, num_basis=2140, num_pairs=1406399, num_threads=32
C  0.3224450000  -2.8729420000  -0.3584430000
C  -0.2520250000  -1.5727390000  0.2763850000
C  2.6958450000  -0.6672030000  0.0204630000
H  -0.4516530000  -3.3200280000  -0.9885170000
C  0.1103650000  -1.4126870000  1.7658600000
H  -0.1826320000  -0.4126960000  2.1006370000
H  -0.5146050000  -2.1100390000  2.3356040000
H  3.6531700000  -0.1724500000  -0.1690400000
H  -1.3380870000  -1.6721160000  0.2521020000
C  1.5600400000  -1.6780360000  2.1522770000
H  1.6409370000  -1.6224500000  3.2425860000
H  1.8214250000  -2.7087550000  1.8962970000
C  2.5944070000  -0.7327950000  1.5545000000
H  2.4236130000  0.2723220000  1.9493160000
H  3.5772750000  -1.0342830000  1.9333190000
C  2.8236340000  -2.0747980000  -0.6179780000
H  3.5691210000  -2.0210260000  -1.4174090000
C  1.5667560000  -2.6948170000  -1.2405290000
H  1.2869290000  -2.0971240000  -2.1171980000
H  1.8440610000  -3.6736060000  -1.6444190000
H  3.2402690000  -2.7643010000  0.1236470000
H  0.5253910000  -3.6070490000  0.4275020000
C  1.6107740000  0.1956520000  -0.6679650000
H  1.9053360000  0.3185080000  -1.7217290000
Si  1.6162840000  2.0307890000  -0.1209780000
C  0.4761440000  2.3783450000  1.3307080000
H  -0.5464770000  2.0483330000  1.1306280000
H  0.8111620000  1.8874850000  2.2465280000
H  0.4451710000  3.4538550000  1.5277380000
C  1.0746910000  3.1068020000  -1.5677050000
H  1.1902700000  4.1619840000  -1.3047770000
H  1.6879070000  2.9198930000  -2.4532380000
H  0.0311300000  2.9534980000  -1.8458600000
C  3.3737030000  2.5482570000  0.3096950000
H  4.0509650000  2.3859140000  -0.5329450000
H  3.3951170000  3.6154730000  0.5472220000
H  3.7768090000  2.0105880000  1.1694140000
B  0.1690550000  -0.3977370000  -0.6819750000
C  -3.2157530000  -0.6370200000  -1.3331100000
C  -2.0798150000  -0.6138850000  -2.0381930000
C  -0.8544600000  0.1779840000  -1.7668700000
C  -3.4393900000  0.1657990000  -0.1247810000
O  -2.6414330000  0.8965280000  0.4188600000
O  -4.6869560000  -0.0102410000  0.3481480000
C  -5.0084600000  0.7161140000  1.5351790000
H  -6.0336680000  0.4471610000  1.7755420000
H  -4.3374230000  0.4358500000  2.3472560000
H  -4.9244070000  1.7888760000  1.3611100000
H  -2.0429670000  -1.2680050000  -2.9061630000
H  -1.1365950000  1.1438450000  -1.3355660000
H  -0.3271110000  0.3842810000  -2.7018510000
H  -4.0399530000  -1.2687610000  -1.6371920000