23
charge=0, multiplicity=1, basis=def2-QZVPPD, AUX_BASIS_CORR=rimp2-def2-QZVPPD, SCF_ALGORITHM=GDM, xc_grid=000099000590, mem_total=30000, num_basis=1065, num_pairs=505445, num_threads=8
C  1.6038598000  0.9431900000  0.3674960000
C  0.2969747000  0.5705764000  1.1510186000
N  -0.3906273000  -0.5465403000  0.3867608000
O  1.4398657000  1.7790679000  -0.5267838000
O  2.5926694000  0.2928251000  0.7109236000
H  0.5366731000  0.1775930000  2.1417045000
C  -1.0838044000  0.1382367000  -0.7476297000
C  -1.5565679000  1.4692476000  -0.1623983000
C  -0.7786407000  1.6440447000  1.1554085000
H  -0.3513408000  0.3013842000  -1.5317619000
H  -1.8799269000  -0.5067106000  -1.1213625000
H  -1.3286837000  2.2694848000  -0.8622238000
H  -2.6342461000  1.4683209000  0.0088263000
H  -0.3255094000  2.6302964000  1.2315844000
H  -1.4463883000  1.5206300000  2.0140614000
C  0.4483869000  -1.7541415000  0.0546967000
H  -0.2185744000  -2.6147337000  0.1358606000
H  1.2036163000  -1.8225216000  0.8361321000
H  -1.1247937000  -0.8860111000  1.0082571000
H  0.3889711000  -1.7987991000  -2.1224639000
C  1.1100988000  -1.7453493000  -1.3067575000
H  1.7320330000  -2.6387659000  -1.3666361000
H  1.7659547000  -0.8913247000  -1.4547131000