18
charge=0, multiplicity=1, basis=def2-QZVPPD, mem_total=15000, AUX_BASIS_CORR=rimp2-def2-QZVPPD, SCF_ALGORITHM=GDM, xc_grid=000099000590, num_basis=895, num_pairs=346351, num_threads=4
C  -2.1029678000  0.1561615000  -0.1637454000
Si  -0.2370420000  0.1555493000  -0.1888206000
C  0.5165376000  1.8520688000  -0.1986574000
C  0.2757000000  -1.0008494000  -1.5635183000
B  1.2446557000  -0.9161220000  1.7209826000
Cl  -0.4072580000  -0.1886698000  2.3514656000
Cl  1.1882247000  -2.7137853000  1.7260950000
Cl  2.6477175000  -0.1320422000  2.5117548000
H  1.3298321000  -0.8946176000  -1.8227415000
H  0.2494994000  2.3611081000  -1.1288315000
H  -2.5171872000  0.8849996000  0.5320184000
H  -2.4673550000  0.3942701000  -1.1681443000
H  -2.5051894000  -0.8229459000  0.1000777000
H  -0.3234525000  -0.8258038000  -2.4606253000
H  0.1207400000  -2.0418277000  -1.2702643000
H  1.6041342000  1.8236686000  -0.1320295000
H  0.1479997000  2.4585370000  0.6283927000
H  1.2354109000  -0.5496993000  0.5265913000