23
charge=0, multiplicity=1, basis=def2-QZVPPD, AUX_BASIS_CORR=rimp2-def2-QZVPPD, SCF_ALGORITHM=GDM, xc_grid=000099000590, mem_total=30000, num_basis=1065, num_pairs=500190, num_threads=8
C  1.5465755000  1.0525251000  0.3396954000
C  0.3443250000  0.4651282000  1.1064212000
N  -0.4382012000  -0.5828472000  0.4059890000
O  1.7653442000  0.6795373000  -0.8765060000
O  2.1746917000  1.9052950000  0.9141293000
H  0.7056791000  0.0643436000  2.0564705000
C  -1.2876753000  0.1192265000  -0.5806715000
C  -1.4104054000  1.5706993000  -0.0796139000
C  -0.7074593000  1.5654419000  1.2821731000
H  -0.8010091000  0.0575799000  -1.5549093000
H  -2.2463275000  -0.3946599000  -0.6551416000
H  -0.9070885000  2.2516607000  -0.7671762000
H  -2.4493958000  1.8926020000  -0.0083259000
H  -0.2627814000  2.5220713000  1.5507351000
H  -1.4043555000  1.2911337000  2.0808468000
C  0.3588425000  -2.1059642000  -0.3067010000
H  -0.6032491000  -2.5711036000  -0.5167181000
H  0.7828108000  -2.4651312000  0.6284658000
H  -1.0457145000  -0.9957929000  1.1096849000
H  0.8756641000  -2.0069516000  -2.3771470000
C  1.2411274000  -1.8359578000  -1.3710650000
H  2.2773518000  -2.1179810000  -1.2177964000
H  1.4912507000  -0.3608552000  -1.1628393000