16
charge=0, multiplicity=1, basis=def2-QZVPPD, AUX_BASIS_CORR=rimp2-def2-QZVPPD, SCF_ALGORITHM=GDM, xc_grid=000099000590, mem_total=7500, num_basis=777, num_pairs=263023, num_threads=2
C  -2.1188630000  0.7339151000  -0.1203549000
C  -0.8310656000  1.0277458000  -0.2986820000
C  0.3462679000  0.1966620000  -0.0605299000
C  1.5173855000  0.8315578000  0.0407956000
H  -2.8726266000  1.4813669000  -0.3508605000
H  -0.6469698000  2.0400757000  -0.6426026000
H  1.5837726000  1.9097478000  -0.0841345000
O  2.6829714000  0.1934001000  0.3242509000
H  3.4173699000  0.8058186000  0.3183666000
C  0.2271355000  -1.3108467000  0.0629801000
H  -0.6664943000  -1.6380841000  -0.4659692000
H  0.0669505000  -1.5691782000  1.1209771000
O  1.2817362000  -2.0373633000  -0.5025004000
H  2.1131525000  -1.7719224000  -0.1088799000
O  -2.5737109000  -0.4511827000  0.3486216000
H  -3.5270117000  -0.4417125000  0.4185220000