11
charge=0, multiplicity=1, basis=def2-QZVPPD, AUX_BASIS_CORR=rimp2-def2-QZVPPD, SCF_ALGORITHM=GDM, xc_grid=000099000590, mem_total=3750, num_basis=532, num_pairs=109111, num_threads=1
B  0.5366278000  -3.5603274000  -0.0547485000
H  0.7904422000  -3.5452829000  1.1081096000
H  -0.5966997000  -3.4830076000  -0.4148017000
H  1.3939622000  -3.7967705000  -0.8464003000
P  -0.1994851000  3.5241352000  0.5952333000
H  -0.2514891000  3.6272274000  -0.8050299000
H  -0.2516348000  4.9123992000  0.8088183000
H  -1.5836592000  3.3383915000  0.7488038000
O  0.8654727000  -1.1515786000  -0.2591104000
C  0.0499778000  -0.3395449000  -0.3803962000
O  -0.7535147000  0.4743586000  -0.5004780000