6
charge=0, multiplicity=1, basis=def2-QZVPPD, AUX_BASIS_CORR=rimp2-def2-QZVPPD, SCF_ALGORITHM=GDM, xc_grid=000099000590, mem_total=3750, num_basis=288, num_pairs=42071, num_threads=1
C  -0.3457134000  -0.1728909000  0.0000000000
C  1.3843767000  -0.0520074000  0.0000000000
N  0.9800815000  1.0640658000  0.0000000000
H  -1.0272588000  0.6727741000  0.0000000000
H  -0.4957430000  -0.7559709000  0.9004849000
H  -0.4957430000  -0.7559709000  -0.9004849000