11
charge=0, multiplicity=1, basis=def2-QZVPPD, AUX_BASIS_CORR=rimp2-def2-QZVPPD, SCF_ALGORITHM=GDM, xc_grid=000099000590, mem_total=3750, num_basis=453, num_pairs=88188, num_threads=1
C  -0.2692331000  1.5323856000  1.6480625000
C  -0.3350059000  -1.3093287000  -1.0219199000
C  0.7843782000  -1.2453943000  -1.7259045000
H  -0.2270821000  2.5841057000  1.3754968000
H  0.3752031000  1.3551361000  2.5057916000
H  0.0655748000  0.9253778000  0.8098806000
H  -1.2922149000  1.2660609000  1.9032646000
H  -1.2276984000  -0.7725013000  -1.3185237000
H  -0.4079332000  -1.9000042000  -0.1170863000
H  0.8570528000  -0.6540376000  -2.6302551000
H  1.6769587000  -1.7817999000  -1.4288065000