10
charge=0, multiplicity=1, basis=def2-QZVPPD, AUX_BASIS_CORR=rimp2-def2-QZVPPD, SCF_ALGORITHM=GDM, xc_grid=000099000590, mem_total=3750, num_basis=403, num_pairs=71225, num_threads=1
B  0.0000000000  0.0000000000  -2.3759884000
H  0.5905364000  1.0228391000  -2.5936411000
H  0.5905364000  -1.0228391000  -2.5936411000
H  -1.1810728000  0.0000000000  -2.5936411000
P  0.0000000000  0.0000000000  1.7684168000
H  0.6165007000  1.0678105000  2.4225352000
H  0.6165007000  -1.0678105000  2.4225352000
H  -1.2330014000  0.0000000000  2.4225352000
H  0.0000000000  0.0000000000  -1.0070281000
H  0.0000000000  0.0000000000  -0.1475438000