18
charge=0, multiplicity=1, basis=def2-QZVPPD, AUX_BASIS_CORR=rimp2-def2-QZVPPD, SCF_ALGORITHM=GDM, xc_grid=000099000590, mem_total=15000, num_basis=895, num_pairs=328546, num_threads=4
C  0.1030359000  -1.8158609000  1.8630141000
Si  -0.0246322000  -0.4809894000  0.5669182000
C  -0.4484438000  1.1683952000  1.3280250000
C  -1.2113791000  -0.9539885000  -0.7905211000
B  1.2593717000  1.8321285000  -2.4715655000
Cl  1.8663149000  -0.2893657000  -0.2981902000
Cl  0.8593548000  0.7015418000  -3.7344073000
Cl  2.8247673000  2.5856964000  -2.4272639000
H  -1.2319201000  -0.2152171000  -1.5930544000
H  -1.4323731000  1.1421122000  1.8025753000
H  0.8370600000  -1.5652415000  2.6304927000
H  -0.8561962000  -1.9644633000  2.3650995000
H  0.3958719000  -2.7735654000  1.4298231000
H  -2.2293395000  -1.0485848000  -0.4046709000
H  -0.9421139000  -1.9111640000  -1.2403241000
H  -0.4666897000  1.9664945000  0.5840554000
H  0.2759308000  1.4532500000  2.0929393000
H  0.4213802000  2.1688220000  -1.7029452000