6
charge=0, multiplicity=1, basis=def2-QZVPPD, AUX_BASIS_CORR=rimp2-def2-QZVPPD, SCF_ALGORITHM=GDM, xc_grid=000099000590, mem_total=3750, num_basis=288, num_pairs=41570, num_threads=1
C  0.0000000000  0.0000000000  -0.4861410000
C  0.0000000000  0.0000000000  0.9653746000
N  0.0000000000  0.0000000000  2.1145426000
H  -0.5102145000  0.8837175000  -0.8645921000
H  -0.5102145000  -0.8837175000  -0.8645921000
H  1.0204291000  0.0000000000  -0.8645921000