11
charge=0, multiplicity=1, basis=def2-QZVPPD, AUX_BASIS_CORR=rimp2-def2-QZVPPD, SCF_ALGORITHM=GDM, xc_grid=000099000590, mem_total=3750, num_basis=453, num_pairs=100462, num_threads=1
C  -0.2859289000  0.9184703000  1.0736652000
C  -0.4034021000  -0.6529505000  -0.3445861000
C  0.7266145000  -0.7363334000  -1.2029949000
H  -0.1370899000  1.9111760000  0.6466858000
H  0.4520114000  0.7052124000  1.8459804000
H  0.4779536000  0.2142783000  -0.1301686000
H  -1.2954707000  0.8256305000  1.4690274000
H  -1.3320510000  -0.2613236000  -0.7376201000
H  -0.5171754000  -1.3832741000  0.4455098000
H  0.7429527000  -0.1922166000  -2.1336196000
H  1.5715858000  -1.3486694000  -0.9318795000