11
charge=0, multiplicity=1, basis=def2-QZVPPD, AUX_BASIS_CORR=rimp2-def2-QZVPPD, SCF_ALGORITHM=GDM, xc_grid=000099000590, mem_total=3750, num_basis=532, num_pairs=123819, num_threads=1
B  0.1959300000  -2.4042511000  -0.1145454000
H  1.3609931000  -2.6855430000  -0.1998045000
H  -0.3336075000  -2.7174693000  0.9206903000
H  -0.4569423000  -2.6147261000  -1.1048204000
P  0.2388373000  2.2718138000  0.1265619000
H  1.6164030000  2.5003983000  0.1252069000
H  -0.1156568000  2.9927789000  1.2693137000
H  -0.1542202000  3.1947195000  -0.8454612000
O  0.2669322000  -0.6703972000  -0.0253469000
C  -0.7401070000  -0.0283976000  -0.0493857000
O  -1.8785617000  0.1610739000  -0.1024087000