17
charge=0, multiplicity=1, basis=def2-QZVPPD, mem_total=7500, AUX_BASIS_CORR=rimp2-def2-QZVPPD, SCF_ALGORITHM=GDM, xc_grid=000099000590, num_basis=771, num_pairs=283317, num_threads=2
H  -0.5388669572  -2.2436184484  1.3257934735
C  -0.6587730000  -1.3681871357  0.7000882500
H  -0.7960820490  1.8416550107  0.0000000000
C  -0.6587730000  -0.0446706630  1.1554974127
C  -0.6587730000  -1.3681871357  -0.7000882500
H  -2.2323065620  0.8001256387  0.0000000000
C  -1.1308501686  0.8052036405  0.0000000000
C  1.4409917500  0.5201945387  0.6948952482
H  -0.7876960460  0.2426514396  2.1917077828
C  1.4409917500  0.5201945387  -0.6948952482
H  -0.5388669572  -2.2436184484  -1.3257934735
C  -0.6587730000  -0.0446706630  -1.1554974127
H  -0.7876960460  0.2426514396  -2.1917077828
H  1.3710057250  1.4564008731  -1.2364784416
H  1.9117309181  -0.2862627493  1.2411514433
H  1.3710057250  1.4564008731  1.2364784416
H  1.9117309181  -0.2862627493  -1.2411514433