10
charge=0, multiplicity=1, basis=def2-QZVPPD, AUX_BASIS_CORR=rimp2-def2-QZVPPD, SCF_ALGORITHM=GDM, xc_grid=000099000590, mem_total=3750, num_basis=480, num_pairs=113364, num_threads=1
N  0.0000000000  0.0000000000  1.1427162081
C  -1.1241574015  0.0000000000  0.3529019260
C  1.1241574015  0.0000000000  0.3529019260
C  -0.7118972543  0.0000000000  -0.9600665429
C  0.7118972543  0.0000000000  -0.9600665429
H  0.0000000000  0.0000000000  2.1483365673
H  -2.1114547541  0.0000000000  0.7852580804
H  2.1114547541  0.0000000000  0.7852580804
H  -1.3585384852  0.0000000000  -1.8236198513
H  1.3585384852  0.0000000000  -1.8236198513