10
charge=0, multiplicity=1, basis=def2-QZVPPD, AUX_BASIS_CORR=rimp2-def2-QZVPPD, SCF_ALGORITHM=GDM, xc_grid=000099000590, mem_total=3750, num_basis=493, num_pairs=118078, num_threads=1
P  -0.2958369057  -1.5865157666  0.0000000000
C  -0.0828608296  -0.3228243153  1.2860184593
C  -0.0828608296  -0.3228243153  -1.2860184593
C  -0.0828608296  0.9093931248  0.7289482604
C  -0.0828608296  0.9093931248  -0.7289482604
H  0.9916435542  -2.1922979830  0.0000000000
H  -0.0986728352  -0.5273403883  2.3478118385
H  -0.0986728352  -0.5273403883  -2.3478118385
H  -0.0835088298  1.8301784537  1.3024054652
H  -0.0835088298  1.8301784537  -1.3024054652