16
charge=0, multiplicity=1, basis=def2-QZVPPD, mem_total=7500, AUX_BASIS_CORR=rimp2-def2-QZVPPD, SCF_ALGORITHM=GDM, xc_grid=000099000590, num_basis=768, num_pairs=268012, num_threads=2
H  0.6961382486  2.5085658960  0.2647100945
C  0.6877152456  1.4254765091  0.1684000601
C  0.6877092456  -1.4254775091  -0.1683990601
C  -0.5160001843  0.7094372534  -0.0141780051
C  1.8671426669  0.7024282509  0.1057730378
C  1.8671386669  -0.7024342509  -0.1057750378
C  -0.5160021843  -0.7094342534  0.0141880051
C  -1.8551386626  1.1050473947  -0.3027051081
H  2.8202510073  1.2199134357  0.1794610641
H  2.8202460073  -1.2199224357  -0.1794730641
H  -2.3234648298  -0.7145962552  1.1964244273
H  0.6961282486  -2.5085658960  -0.2647140945
H  -2.3234608298  0.7145842552  -1.1964214273
H  -2.2951798197  2.0310777254  0.0754460269
H  -2.2951858197  -2.0310667254  -0.0754650270
C  -1.8551436626  -1.1050423947  0.3027011081