22
charge=0, multiplicity=1, basis=def2-QZVPPD, AUX_BASIS_CORR=rimp2-def2-QZVPPD, SCF_ALGORITHM=GDM, xc_grid=000099000590, mem_total=30000, num_basis=1026, num_pairs=477546, num_threads=8
H  -0.6017152149  -1.9610677004  -1.5648675589
C  -0.6046492160  -1.9640457015  -0.4705691681
C  0.7554682698  -1.9801927072  0.1740840622
C  0.7070262525  -1.2370744418  1.3231994726
C  -0.5178931850  -0.5149771839  1.3838114942
C  -1.2278914385  -0.7300562607  0.1754590627
H  -1.1737474192  -2.8542150194  -0.1512360540
C  0.7197782571  0.5208771860  -1.2879934600
H  1.5719445614  -2.6197899357  -0.1421090508
H  1.5065365381  -1.1549934125  2.0532927334
H  -0.8429573011  0.1023130365  2.2118617900
C  -0.6740822408  0.6743852409  -1.0780933851
H  -2.3054538234  -0.5847702089  0.1289840461
H  -1.3832914941  0.4768031703  -1.8795866713
H  1.1850904233  -0.0923050330  -2.0494877320
C  1.4115665042  1.2990814640  -0.3177581135
C  0.5170911847  2.0174487206  0.4298371535
H  2.4853398877  1.2718284542  -0.1588290567
H  0.7571482704  2.6879749600  1.2474334455
C  -0.8397142999  1.9217736864  -0.2148980768
H  -1.6848546018  1.8941426765  0.4797111713
H  -0.9942383551  2.7907589967  -0.8776443135