21
charge=0, multiplicity=1, basis=def2-QZVPPD, AUX_BASIS_CORR=rimp2-def2-QZVPPD, SCF_ALGORITHM=GDM, xc_grid=000099000590, mem_total=15000, num_basis=963, num_pairs=424035, num_threads=4
H  2.0769447418  -1.1378754064  1.1815894220
C  1.4865025309  -0.3606671288  0.7071842526
C  -1.8586806638  0.6857122449  0.0000000000
C  0.9293403319  0.6857122449  1.6096645749
H  -0.0151860054  -1.1378754064  2.3894818534
H  0.6581442351  1.6318675828  1.1399394071
H  1.4682465244  0.8576093063  2.5430779083
C  -0.1308120467  -0.3606671288  1.6409415861
C  -1.3556904842  -0.3606671288  0.9337563335
H  -0.0151860054  -1.1378754064  -2.3894818534
C  -0.1308120467  -0.3606671288  -1.6409415861
H  -2.9364930488  0.8576093063  0.0000000000
C  0.9293403319  0.6857122449  -1.6096645749
H  2.0769447418  -1.1378754064  -1.1815894220
H  0.6581442351  1.6318675828  -1.1399394071
H  1.4682465244  0.8576093063  -2.5430779083
C  1.4865025309  -0.3606671288  -0.7071842526
H  -2.0617587364  -1.1378754064  1.2078924314
H  -1.3162884701  1.6318675828  0.0000000000
C  -1.3556904842  -0.3606671288  -0.9337563335
H  -2.0617587364  -1.1378754064  -1.2078924314