11
charge=0, multiplicity=1, basis=def2-QZVPPD, AUX_BASIS_CORR=rimp2-def2-QZVPPD, SCF_ALGORITHM=GDM, xc_grid=000099000590, mem_total=3750, num_basis=513, num_pairs=129000, num_threads=1
C  0.0000000000  0.0000000000  -1.1241699922
C  0.0000000000  1.1794268336  -0.1895951148
C  0.0000000000  -1.1794268336  -0.1895951148
C  0.0000000000  0.7343465206  1.0806623771
C  0.0000000000  -0.7343465206  1.0806623771
H  0.8771587950  0.0000000000  -1.7856842772
H  -0.8771587950  0.0000000000  -1.7856842772
H  0.0000000000  2.2102797559  -0.5163550068
H  0.0000000000  -2.2102797559  -0.5163550068
H  0.0000000000  1.3472862263  1.9730570177
H  0.0000000000  -1.3472862263  1.9730570177