16
charge=0, multiplicity=1, basis=def2-QZVPPD, AUX_BASIS_CORR=rimp2-def2-QZVPPD, SCF_ALGORITHM=GDM, xc_grid=000099000590, mem_total=7500, num_basis=738, num_pairs=261483, num_threads=2
H  -1.9683566405  1.0670663811  1.3430714797
C  -1.1141653354  1.0145763624  0.6842172444
C  0.2292221444  0.7293262605  1.0994503927
C  -1.1141653354  1.0145763624  -0.6842172444
H  1.9824377705  0.7063002523  0.0000000000
N  1.0347784321  1.0578223778  0.0000000000
C  0.2292221444  -1.3341134765  0.7065972524
H  0.6159322825  0.8696363106  2.1001887501
C  0.2292221444  -1.3341134765  -0.7065972524
H  -1.9683566405  1.0670663811  -1.3430714797
C  0.2292221444  0.7293262605  -1.0994503927
H  0.6159322825  0.8696363106  -2.1001887501
H  -0.6553061715  -1.6635305941  -1.2380164422
H  -0.6553061715  -1.6635305941  1.2380164422
H  1.1548434750  -1.5650225590  1.2257754378
H  1.1548434750  -1.5650225590  -1.2257754378