9
charge=0, multiplicity=1, basis=def2-QZVPPD, AUX_BASIS_CORR=rimp2-def2-QZVPPD, SCF_ALGORITHM=GDM, xc_grid=000099000590, mem_total=3750, num_basis=463, num_pairs=105016, num_threads=1
C  -0.7135547549  0.0000000000  -0.6997662898
C  -1.2409850490  0.0000000000  0.5588944678
S  0.0000000000  0.0000000000  1.7691351166
C  1.2409850490  0.0000000000  0.5588944678
C  0.7135547549  0.0000000000  -0.6997662898
H  -1.3181355986  0.0000000000  -1.5970598184
H  -2.2788195728  0.0000000000  0.8533640822
H  2.2788195728  0.0000000000  0.8533640822
H  1.3181355986  0.0000000000  -1.5970598184