15
charge=0, multiplicity=1, basis=def2-QZVPPD, AUX_BASIS_CORR=rimp2-def2-QZVPPD, SCF_ALGORITHM=GDM, xc_grid=000099000590, mem_total=7500, num_basis=721, num_pairs=248877, num_threads=2
C  0.8281162285  -0.2115907060  1.2047523649
S  1.4422984478  -1.3496556124  0.0000000000
C  -1.2490846852  -0.5502165386  0.7021592540
C  0.9206319596  1.1096599697  0.6864812833
C  0.8281162285  -0.2115907060  -1.2047523649
C  -1.2490846852  -0.5502165386  -0.7021592540
C  0.9206319596  1.1096599697  -0.6864812833
H  0.9567369516  -0.4597641544  2.2501490096
H  -1.3125303242  -1.4935880262  1.2302860590
H  -1.6775904281  0.2904416282  1.2334784650
H  0.8125710740  1.9898856335  1.3072866529
H  0.9567369516  -0.4597641544  -2.2501490096
H  -1.3125303242  -1.4935880262  -1.2302860590
H  -1.6775904281  0.2904416282  -1.2334784650
H  0.8125710740  1.9898856335  -1.3072866529