16
charge=0, multiplicity=1, basis=def2-QZVPPD, mem_total=7500, AUX_BASIS_CORR=rimp2-def2-QZVPPD, SCF_ALGORITHM=GDM, xc_grid=000099000590, num_basis=768, num_pairs=265191, num_threads=2
H  -0.1448830517  1.2440004443  2.7907879968
C  -0.0793700283  0.7214292577  1.8402296573
C  -0.1286930460  1.4089855032  0.6774822420
C  0.0793700283  -0.7214292577  1.8402296573
C  0.1286930460  -1.4089855032  0.6774822420
H  0.1448830517  -1.2440004443  2.7907879968
H  -0.2212180790  2.4923458902  0.6775082420
C  -0.0067270024  0.7484672673  -0.6213442219
C  0.0067270024  -0.7484672673  -0.6213442219
H  0.2212180790  -2.4923458902  0.6775082420
C  0.1286930460  1.4974475348  -1.7395096213
C  -0.1286930460  -1.4974475348  -1.7395096213
H  0.0895460320  2.5817309221  -1.6890106032
H  0.2944571052  1.0644803802  -2.7204279716
H  -0.2944571052  -1.0644803802  -2.7204279716
H  -0.0895460320  -2.5817309221  -1.6890106032