17
charge=0, multiplicity=1, basis=def2-QZVPPD, AUX_BASIS_CORR=rimp2-def2-QZVPPD, SCF_ALGORITHM=GDM, xc_grid=000099000590, mem_total=7500, num_basis=784, num_pairs=287524, num_threads=2
C  -0.6044029361  0.0962844771  1.3044761642
Si  -0.7491134878  1.4312274542  0.0000000000
C  1.5414455289  -0.0906405907  0.6977415987
C  -1.1578122301  -1.0420480361  0.7042307937
C  -0.6044029361  0.0962844771  -1.3044761642
C  1.5414455289  -0.0906405907  -0.6977415987
C  -1.1578122301  -1.0420480361  -0.7042307937
H  -0.5756816014  0.1951047299  2.3833932653
H  -2.1016229716  2.0601626796  0.0000000000
H  0.2709328770  2.5094718389  0.0000000000
H  1.8760866898  0.7896088951  1.2333986523
H  1.6474797528  -1.0208708267  1.2379470867
H  -1.4372134127  -1.9278696349  1.2674242840
H  -0.5756816014  0.1951047299  -2.3833932653
H  1.8760866898  0.7896088951  -1.2333986523
H  1.6474797528  -1.0208708267  -1.2379470867
H  -1.4372134127  -1.9278696349  -1.2674242840