16
charge=0, multiplicity=1, basis=def2-QZVPPD, mem_total=7500, AUX_BASIS_CORR=rimp2-def2-QZVPPD, SCF_ALGORITHM=GDM, xc_grid=000099000590, num_basis=751, num_pairs=267806, num_threads=2
H  -1.9589319496  1.2311746272  1.2923984616
C  -1.0607046288  1.1152865858  0.6965522488
C  0.1877728171  0.7555634574  1.2430254440
C  -1.0607046288  1.1152865858  -0.6965522488
H  2.3497575892  0.2042912605  0.0000000000
P  1.4205812574  1.2794546445  0.0000000000
C  0.1877728171  -1.3974983116  0.6964702487
H  0.3767958846  0.7949304714  2.3095608249
C  0.1877728171  -1.3974983116  -0.6964702487
H  -1.9589319496  1.2311746272  -1.2923984616
C  0.1877728171  0.7555634574  -1.2430254440
H  0.3767958846  0.7949304714  -2.3095608249
H  1.1024611438  -1.6070483865  -1.2371004418
H  -0.7203355073  -1.6342813962  1.2351484411
H  1.1024611438  -1.6070483865  1.2371004418
H  -0.7203355073  -1.6342813962  -1.2351484411