15
charge=0, multiplicity=1, basis=def2-QZVPPD, AUX_BASIS_CORR=rimp2-def2-QZVPPD, SCF_ALGORITHM=GDM, xc_grid=000099000590, mem_total=7500, num_basis=708, num_pairs=240572, num_threads=2
C  -0.5940600135  -0.6084778763  -1.0752945461
O  -0.5038489813  -1.4563756792  0.0000000000
C  1.3514696816  0.1664566611  -0.7012734825
C  -1.3735355905  0.5133958697  -0.6873308618
C  -0.5940600135  -0.6084778763  1.0752945461
C  1.3514696816  0.1664566611  0.7012734825
C  -1.3735355905  0.5133958697  0.6873308618
H  -0.5651403446  -1.0911148870  -2.0411123552
H  1.8627130488  -0.6340637857  -1.2241668949
H  1.3188402126  1.1051077343  -1.2409100474
H  -1.7483625036  1.2768841235  -1.3521797321
H  -0.5651403446  -1.0911148870  2.0411123552
H  1.8627130488  -0.6340637857  1.2241668949
H  1.3188402126  1.1051077343  1.2409100474
H  -1.7483625036  1.2768841235  1.3521797321