21
charge=0, multiplicity=1, basis=def2-QZVPPD, mem_total=15000, AUX_BASIS_CORR=rimp2-def2-QZVPPD, SCF_ALGORITHM=GDM, xc_grid=000099000590, num_basis=963, num_pairs=426750, num_threads=4
H  0.0000000000  0.0000000000  0.0000000000
C  0.0000000000  0.0000000000  1.0875223884
C  1.2117464328  0.0000000000  4.3333415477
C  -0.0651870233  1.3635164870  1.7320376186
H  1.9946447124  0.9782973494  1.0449573732
H  -0.6080892172  1.4721375258  2.6666509524
H  -0.1498890535  2.2306957967  1.0818603864
C  1.2425244438  0.6094102177  1.7384586209
C  1.8434746584  -0.0322880115  2.9626830582
H  0.0074290027  -2.9806770646  2.9020320365
C  -0.0137730049  -1.8934116762  2.9124810402
H  1.8695316677  0.0743480266  5.1957208557
C  -1.3901684965  -1.2761394558  2.9702470608
H  -0.9714763470  -1.9353966912  0.9078563242
H  -1.5223005437  -0.3491741247  3.5209912576
H  -2.2452948019  -1.9438166942  3.0400390858
C  -0.6235622227  -1.2422754437  1.6702485965
H  2.9308920468  -0.0214340077  2.9522340544
H  0.2729710975  0.5313371898  4.4615005935
C  1.2107394324  -1.2928344618  3.5539802693
H  1.9151526840  -2.0450117304  3.9014533934