10
charge=0, multiplicity=1, basis=def2-QZVPPD, AUX_BASIS_CORR=rimp2-def2-QZVPPD, SCF_ALGORITHM=GDM, xc_grid=000099000590, mem_total=3750, num_basis=450, num_pairs=98000, num_threads=1
C  0.3094552000  1.4885766000  0.4289354000
C  0.0086953000  0.7307683000  -0.6178885000
C  -0.0086953000  -0.7307683000  -0.6178885000
C  -0.3094552000  -1.4885766000  0.4289354000
H  -0.2198754000  1.2121312000  -1.5596547000
H  0.2918854000  2.5648378000  0.3671684000
H  0.5938825000  1.0525743000  1.3749643000
H  0.2198754000  -1.2121312000  -1.5596547000
H  -0.5938825000  -1.0525743000  1.3749643000
H  -0.2918854000  -2.5648378000  0.3671684000