7
charge=0, multiplicity=1, basis=def2-QZVPPD, AUX_BASIS_CORR=rimp2-def2-QZVPPD, SCF_ALGORITHM=GDM, xc_grid=000099000590, mem_total=3750, num_basis=291, num_pairs=43001, num_threads=1
C  -0.2143504000  0.9533214000  0.0000000000
N  -0.1118448000  -0.5782992000  0.0000000000
H  0.8108410000  -1.0328730000  0.0000000000
H  -0.6149312000  -0.9202851000  0.8074929000
H  -0.6149312000  -0.9202851000  -0.8074929000
H  0.3726083000  1.2492105000  0.8729349000
H  0.3726083000  1.2492105000  -0.8729349000