6
charge=0, multiplicity=1, basis=def2-QZVPPD, AUX_BASIS_CORR=rimp2-def2-QZVPPD, SCF_ALGORITHM=GDM, xc_grid=000099000590, mem_total=3750, num_basis=261, num_pairs=34660, num_threads=1
C  0.1354501000  0.3335445000  0.0000000000
O  0.1744673000  -1.0774079000  0.0000000000
H  0.6439155000  0.7202929000  0.8794450000
H  0.6439155000  0.7202929000  -0.8794450000
H  -0.8812042000  0.7207713000  0.0000000000
H  -0.7165441000  -1.4174937000  0.0000000000