5
charge=0, multiplicity=1, basis=def2-QZVPPD, AUX_BASIS_CORR=rimp2-def2-QZVPPD, SCF_ALGORITHM=GDM, xc_grid=000099000590, mem_total=3750, num_basis=228, num_pairs=26520, num_threads=1
N  -0.3896245000  -0.4975700000  0.0000000000
O  -0.3776717000  0.9154097000  0.0000000000
H  0.1141459000  -0.8133419000  0.8207146000
H  0.1141459000  -0.8133419000  -0.8207146000
H  0.5390043000  1.2088440000  0.0000000000