5
charge=0, multiplicity=1, basis=def2-QZVPPD, AUX_BASIS_CORR=rimp2-def2-QZVPPD, SCF_ALGORITHM=GDM, xc_grid=000099000590, mem_total=3750, num_basis=228, num_pairs=26520, num_threads=1
N  -0.1111588083  -0.0255161349  -0.0173051041
O  -0.5889587848  0.4655559193  1.2433983852
H  0.9008798474  -0.0490625429  0.0279354807
H  -0.3303858937  0.7302174506  -0.6540073181
H  0.1569686395  0.4775063080  1.8446475563