10
charge=0, multiplicity=1, basis=def2-QZVPPD, AUX_BASIS_CORR=rimp2-def2-QZVPPD, SCF_ALGORITHM=GDM, xc_grid=000099000590, mem_total=3750, num_basis=450, num_pairs=97439, num_threads=1
C  0.0240053000  0.7372345000  -0.4077909000
C  -0.0240053000  -0.7372345000  -0.4077909000
C  0.8896528000  1.4589341000  0.2837537000
H  -0.7007229000  1.2440229000  -1.0342574000
H  0.8809846000  2.5367250000  0.2414324000
H  1.6311062000  0.9968323000  0.9184411000
C  -0.8896528000  -1.4589341000  0.2837537000
H  0.7007229000  -1.2440229000  -1.0342574000
H  -1.6311062000  -0.9968323000  0.9184411000
H  -0.8809846000  -2.5367250000  0.2414324000