5
charge=0, multiplicity=1, basis=def2-QZVPPD, AUX_BASIS_CORR=rimp2-def2-QZVPPD, SCF_ALGORITHM=GDM, xc_grid=000099000590, mem_total=3750, num_basis=228, num_pairs=26520, num_threads=1
N  -0.0358497587  -0.0432742004  -0.0190965333
O  -0.0050660963  0.0422835696  1.4025895242
H  0.9366839424  -0.0032423297  -0.2997035480
H  -0.4517747530  0.8303571391  -0.3129941565
H  -0.4166483344  -0.7787671785  1.6738737136