9
charge=0, multiplicity=1, basis=def2-QZVPPD, AUX_BASIS_CORR=rimp2-def2-QZVPPD, SCF_ALGORITHM=GDM, xc_grid=000099000590, mem_total=3750, num_basis=420, num_pairs=87389, num_threads=1
C  -0.0117631561  0.0196584724  1.4490712370
C  0.0289741700  0.3076018894  -0.0280929935
N  -1.1642174609  0.0264941429  -0.7815781872
O  0.9940088263  0.7583148722  -0.5664994491
H  -1.4044274146  -0.9523299943  -0.6803948434
H  -1.9390080384  0.5356689847  -0.3744338880
H  -0.7517710297  0.6577586522  1.9269083101
H  -0.3259395181  -1.0068591564  1.6314895685
H  0.9584016215  0.2029631371  1.8951972456