20
charge=0, multiplicity=1, basis=def2-QZVPPD, AUX_BASIS_CORR=rimp2-def2-QZVPPD, SCF_ALGORITHM=GDM, xc_grid=000099000590, mem_total=15000, num_basis=840, num_pairs=326042, num_threads=4
C  -0.0068699000  0.7702573000  0.4144412000
C  0.0068699000  -0.7702573000  0.4144412000
C  1.4079116000  -1.3250763000  0.6406010000
H  -0.6108025000  -1.0881108000  1.2568246000
C  -0.6003722000  -1.3575502000  -0.8538179000
C  -1.4079116000  1.3250763000  0.6406010000
C  0.6003722000  1.3575502000  -0.8538179000
H  0.6108025000  1.0881108000  1.2568246000
H  1.3847819000  -2.3993600000  0.8127175000
H  2.0448598000  -1.1492812000  -0.2243403000
H  1.8818018000  -0.8616367000  1.5028837000
H  0.0501521000  -1.1813558000  -1.7079723000
H  -0.7346481000  -2.4327435000  -0.7611970000
H  -1.5708616000  -0.9207720000  -1.0801440000
H  0.7346481000  2.4327435000  -0.7611970000
H  1.5708616000  0.9207720000  -1.0801440000
H  -0.0501521000  1.1813558000  -1.7079723000
H  -1.3847819000  2.3993600000  0.8127175000
H  -2.0448598000  1.1492812000  -0.2243403000
H  -1.8818018000  0.8616367000  1.5028837000