6
charge=0, multiplicity=1, basis=def2-QZVPPD, AUX_BASIS_CORR=rimp2-def2-QZVPPD, SCF_ALGORITHM=GDM, xc_grid=000099000590, mem_total=3750, num_basis=258, num_pairs=33875, num_threads=1
N  0.0000000000  -0.7296734000  -0.3498847000
N  0.0000000000  0.7296734000  -0.3498847000
H  -0.8019523000  1.0488615000  0.1774826000
H  0.8019523000  1.0488615000  0.1774826000
H  -0.8019523000  -1.0488615000  0.1774826000
H  0.8019523000  -1.0488615000  0.1774826000