4
charge=0, multiplicity=1, basis=def2-QZVPPD, AUX_BASIS_CORR=rimp2-def2-QZVPPD, SCF_ALGORITHM=GDM, xc_grid=000099000590, mem_total=3750, num_basis=224, num_pairs=25393, num_threads=1
S  1.0572291000  0.0000000000  -0.6622784000
S  -1.0572291000  0.0000000000  -0.6622784000
H  1.2093176000  0.0000000000  0.6627105000
H  -1.2093176000  0.0000000000  0.6627105000