20
charge=0, multiplicity=1, basis=def2-QZVPPD, mem_total=15000, AUX_BASIS_CORR=rimp2-def2-QZVPPD, SCF_ALGORITHM=GDM, xc_grid=000099000590, num_basis=840, num_pairs=324395, num_threads=4
C  -0.0207058000  -0.7667877000  0.0000000000
C  0.0207058000  0.7667877000  0.0000000000
C  0.6956377000  1.3103885000  1.2529874000
C  0.6956377000  1.3103885000  -1.2529874000
H  -1.0164326000  1.1164572000  0.0000000000
C  -0.6956377000  -1.3103885000  -1.2529874000
C  -0.6956377000  -1.3103885000  1.2529874000
H  1.0164326000  -1.1164572000  0.0000000000
H  0.8029041000  2.3913793000  1.1998404000
H  0.1285111000  1.0817107000  2.1497585000
H  1.6917129000  0.8829484000  1.3708423000
H  0.1285111000  1.0817107000  -2.1497585000
H  0.8029041000  2.3913793000  -1.1998404000
H  1.6917129000  0.8829484000  -1.3708423000
H  -0.8029041000  -2.3913793000  1.1998404000
H  -0.1285111000  -1.0817107000  2.1497585000
H  -1.6917129000  -0.8829484000  1.3708423000
H  -0.8029041000  -2.3913793000  -1.1998404000
H  -1.6917129000  -0.8829484000  -1.3708423000
H  -0.1285111000  -1.0817107000  -2.1497585000