22
charge=0, multiplicity=1, basis=def2-QZVPPD, AUX_BASIS_CORR=rimp2-def2-QZVPPD, SCF_ALGORITHM=GDM, xc_grid=000099000590, mem_total=30000, num_basis=1086, num_pairs=474428, num_threads=8
C  0.0000000000  0.0000000000  0.7395831000
C  1.1315582000  -0.3997245000  1.4579412000
C  1.1319975000  -0.4003733000  2.8462384000
C  0.0000000000  0.0000000000  3.5470967000
C  -1.1319975000  0.4003733000  2.8462384000
C  -1.1315582000  0.3997245000  1.4579412000
C  0.0000000000  0.0000000000  -0.7395831000
C  1.1315582000  0.3997245000  -1.4579412000
C  1.1319975000  0.4003733000  -2.8462384000
C  0.0000000000  0.0000000000  -3.5470967000
C  -1.1319975000  -0.4003733000  -2.8462384000
C  -1.1315582000  -0.3997245000  -1.4579412000
H  2.0096598000  -0.7362253000  0.9219214000
H  2.0161092000  -0.7223128000  3.3820552000
H  0.0000000000  0.0000000000  4.6295229000
H  -2.0161092000  0.7223128000  3.3820552000
H  -2.0096598000  0.7362253000  0.9219214000
H  2.0096598000  0.7362253000  -0.9219214000
H  2.0161092000  0.7223128000  -3.3820552000
H  0.0000000000  0.0000000000  -4.6295229000
H  -2.0161092000  -0.7223128000  -3.3820552000
H  -2.0096598000  -0.7362253000  -0.9219214000