8
charge=0, multiplicity=1, basis=def2-QZVPPD, AUX_BASIS_CORR=rimp2-def2-QZVPPD, SCF_ALGORITHM=GDM, xc_grid=000099000590, mem_total=3750, num_basis=324, num_pairs=53089, num_threads=1
C  0.0000000000  0.0000000000  -0.7565307000
C  0.0000000000  0.0000000000  0.7565307000
H  0.8767674000  0.5062019000  -1.1518715000
H  0.0000000000  -1.0124038000  -1.1518715000
H  -0.8767674000  0.5062019000  -1.1518715000
H  -0.8767674000  -0.5062019000  1.1518715000
H  0.8767674000  -0.5062019000  1.1518715000
H  0.0000000000  1.0124038000  1.1518715000