22
charge=0, multiplicity=1, basis=def2-QZVPPD, AUX_BASIS_CORR=rimp2-def2-QZVPPD, SCF_ALGORITHM=GDM, xc_grid=000099000590, mem_total=30000, num_basis=1086, num_pairs=472242, num_threads=8
C  0.7447222000  0.0000000000  0.0000000000
C  1.4787691000  -1.1944594000  0.0000000000
C  2.8667226000  -1.1964878000  0.0000000000
C  3.5730840000  0.0000000000  0.0000000000
C  2.8667226000  1.1964878000  0.0000000000
C  1.4787691000  1.1944594000  0.0000000000
C  -0.7447222000  0.0000000000  0.0000000000
C  -1.4787691000  -1.1944594000  0.0000000000
C  -2.8667226000  -1.1964878000  0.0000000000
C  -3.5730840000  0.0000000000  0.0000000000
C  -2.8667226000  1.1964878000  0.0000000000
C  -1.4787691000  1.1944594000  0.0000000000
H  0.9697085000  -2.1465575000  0.0000000000
H  3.3979977000  -2.1399873000  0.0000000000
H  4.6554610000  0.0000000000  0.0000000000
H  3.3979977000  2.1399873000  0.0000000000
H  0.9697085000  2.1465575000  0.0000000000
H  -0.9697085000  -2.1465575000  0.0000000000
H  -3.3979977000  -2.1399873000  0.0000000000
H  -4.6554610000  0.0000000000  0.0000000000
H  -3.3979977000  2.1399873000  0.0000000000
H  -0.9697085000  2.1465575000  0.0000000000