4
charge=0, multiplicity=1, basis=def2-QZVPPD, AUX_BASIS_CORR=rimp2-def2-QZVPPD, SCF_ALGORITHM=GDM, xc_grid=000099000590, mem_total=3750, num_basis=198, num_pairs=20065, num_threads=1
O  -0.0044695000  -0.7207736000  0.0000000000
O  0.0044695000  0.7207736000  0.0000000000
H  -0.9535873000  -0.8702773000  0.0000000000
H  0.9535873000  0.8702773000  0.0000000000