7
charge=0, multiplicity=1, basis=def2-QZVPPD, AUX_BASIS_CORR=rimp2-def2-QZVPPD, SCF_ALGORITHM=GDM, xc_grid=000099000590, mem_total=3750, num_basis=291, num_pairs=43004, num_threads=1
C  -0.0239088563  -0.0530264166  -0.1074586658
N  0.0009206683  0.0036546834  1.4447770802
H  0.9420861878  -0.0125904196  1.8251447475
H  -0.4620250431  0.8203965108  1.8322055580
H  -0.4777381215  -0.8060589927  1.8156486050
H  -0.4946238926  0.8896594757  -0.3887438168
H  1.0286490574  0.0471301590  -0.3795775082