16
charge=0, multiplicity=1, basis=def2-QZVPPD, mem_total=15000, AUX_BASIS_CORR=rimp2-def2-QZVPPD, SCF_ALGORITHM=GDM, xc_grid=000099000590, num_basis=834, num_pairs=294089, num_threads=4
O  1.2974841000  1.0074030000  -0.7498257000
C  0.7225121000  0.0395694000  0.0172773000
C  -0.7225121000  -0.0395694000  0.0172773000
O  -1.2974841000  -1.0074030000  -0.7498257000
C  -2.6299475000  -0.8691602000  -0.6182315000
C  -2.9323870000  0.1653405000  0.1958645000
C  -1.6875177000  0.7094337000  0.6145398000
H  -1.5215572000  1.5437234000  1.2685818000
H  -3.9158592000  0.4973274000  0.4675193000
H  -3.2250196000  -1.5753406000  -1.1627414000
C  2.6299475000  0.8691602000  -0.6182315000
C  2.9323870000  -0.1653405000  0.1958645000
C  1.6875177000  -0.7094337000  0.6145398000
H  3.2250196000  1.5753406000  -1.1627414000
H  3.9158592000  -0.4973274000  0.4675193000
H  1.5215572000  -1.5437234000  1.2685818000