20
charge=0, multiplicity=1, basis=def2-QZVPPD, AUX_BASIS_CORR=rimp2-def2-QZVPPD, SCF_ALGORITHM=GDM, xc_grid=000099000590, mem_total=15000, num_basis=840, num_pairs=325156, num_threads=4
C  0.0000000000  -0.7842119000  0.4870298000
C  0.0000000000  0.7842119000  0.4870298000
C  -1.2407250000  1.4167465000  -0.1340541000
H  0.0000000000  1.0914546000  1.5332924000
C  1.2407250000  1.4167465000  -0.1340541000
C  1.2407250000  -1.4167465000  -0.1340541000
C  -1.2407250000  -1.4167465000  -0.1340541000
H  0.0000000000  -1.0914546000  1.5332924000
H  1.1999321000  -2.4968260000  -0.0082871000
H  1.3107097000  -1.2059374000  -1.1999296000
H  2.1582055000  -1.0720738000  0.3327865000
H  -1.1999321000  -2.4968260000  -0.0082871000
H  -2.1582055000  -1.0720738000  0.3327865000
H  -1.3107097000  -1.2059374000  -1.1999296000
H  1.1999321000  2.4968260000  -0.0082871000
H  2.1582055000  1.0720738000  0.3327865000
H  1.3107097000  1.2059374000  -1.1999296000
H  -1.1999321000  2.4968260000  -0.0082871000
H  -1.3107097000  1.2059374000  -1.1999296000
H  -2.1582055000  1.0720738000  0.3327865000