6
charge=0, multiplicity=1, basis=def2-QZVPPD, AUX_BASIS_CORR=rimp2-def2-QZVPPD, SCF_ALGORITHM=GDM, xc_grid=000099000590, mem_total=3750, num_basis=261, num_pairs=34660, num_threads=1
O  0.1640874000  1.0771522000  0.0000000000
C  0.1319097000  -0.3310036000  0.0000000000
H  1.1612146000  -0.6758875000  0.0000000000
H  -0.3605642000  -0.7355506000  0.8858582000
H  -0.3605642000  -0.7355506000  -0.8858582000
H  -0.7360833000  1.4008402000  0.0000000000