6
charge=0, multiplicity=1, basis=def2-QZVPPD, AUX_BASIS_CORR=rimp2-def2-QZVPPD, SCF_ALGORITHM=GDM, xc_grid=000099000590, mem_total=3750, num_basis=258, num_pairs=33875, num_threads=1
N  0.0507550000  0.7066917000  -0.2218809000
N  -0.0507550000  -0.7066917000  -0.2218809000
H  0.8523830000  -1.0838766000  -0.4577758000
H  -0.3235893000  -1.0740537000  0.6796527000
H  -0.8523830000  1.0838766000  -0.4577758000
H  0.3235893000  1.0740537000  0.6796527000