9
charge=0, multiplicity=1, basis=def2-QZVPPD, AUX_BASIS_CORR=rimp2-def2-QZVPPD, SCF_ALGORITHM=GDM, xc_grid=000099000590, mem_total=3750, num_basis=420, num_pairs=86929, num_threads=1
C  0.0454891392  -0.0029902749  1.5226667859
C  -0.0760176280  0.2537505759  0.0581255188
N  -1.3517507081  -0.1452786076  -0.4903987542
O  0.7947268364  0.7472004766  -0.5990799078
H  -1.7522361094  0.6727095909  -0.9357450346
H  -1.1642920686  -0.7790521313  -1.2588821677
H  -0.7152379988  0.5682143809  2.0487609446
H  -0.1671514855  -1.0489732935  1.7314491233
H  1.0310550228  0.2757842831  1.8762484918