16
charge=0, multiplicity=1, basis=def2-QZVPPD, AUX_BASIS_CORR=rimp2-def2-QZVPPD, SCF_ALGORITHM=GDM, xc_grid=000099000590, mem_total=15000, num_basis=834, num_pairs=294061, num_threads=4
C  -1.6360283000  0.0000000000  0.9648864000
C  -2.9079474000  0.0000000000  0.3350273000
C  -2.6709081000  0.0000000000  -0.9943159000
O  -1.3436623000  0.0000000000  -1.2348470000
C  -0.7165418000  0.0000000000  -0.0372394000
C  0.7165418000  0.0000000000  -0.0372394000
O  1.3436623000  0.0000000000  -1.2348470000
C  2.6709081000  0.0000000000  -0.9943159000
C  2.9079474000  0.0000000000  0.3350273000
C  1.6360283000  0.0000000000  0.9648864000
H  -1.4258488000  0.0000000000  2.0166086000
H  -3.8703306000  0.0000000000  0.8087215000
H  -3.3036643000  0.0000000000  -1.8588321000
H  3.3036643000  0.0000000000  -1.8588321000
H  3.8703306000  0.0000000000  0.8087215000
H  1.4258488000  0.0000000000  2.0166086000