23
charge=0, multiplicity=1, basis=def2-QZVPPD, AUX_BASIS_CORR=rimp2-def2-QZVPPD, SCF_ALGORITHM=GDM, xc_grid=000099000590, mem_total=15000, num_basis=969, num_pairs=428163, num_threads=4
C  -1.2247597924  -1.1652317870  0.0000000000
C  -0.5986208869  0.2290146315  0.0000000000
C  0.9491462358  0.1770039096  0.0000000000
C  1.5381503519  -0.4917889173  1.2411621314
C  1.5381503519  -0.4917889173  -1.2411621314
C  -1.0883128601  0.9877262163  1.2350997943
C  -1.0883128601  0.9877262163  -1.2350997943
H  -0.9401617335  -1.7355696166  0.8837911409
H  -2.3125135882  -1.0795668497  0.0000000000
H  -0.9401617335  -1.7355696166  -0.8837911409
H  1.2786338983  1.2226247437  0.0000000000
H  1.2638523444  -1.5463136734  1.2845914919
H  1.2157966931  -0.0174241698  2.1653803788
H  2.6263254437  -0.4413331303  1.2073690816
H  1.2638523444  -1.5463136734  -1.2845914919
H  2.6263254437  -0.4413331303  -1.2073690816
H  1.2157966931  -0.0174241698  -2.1653803788
H  -0.8837231747  0.4431272906  2.1553617192
H  -2.1664375780  1.1424178030  1.1768450419
H  -0.6114324202  1.9672358734  1.3045690720
H  -0.8837231747  0.4431272906  -2.1553617192
H  -0.6114324202  1.9672358734  -1.3045690720
H  -2.1664375780  1.1424178030  -1.1768450419