18
charge=0, multiplicity=1, basis=def2-QZVPPD, AUX_BASIS_CORR=rimp2-def2-QZVPPD, SCF_ALGORITHM=GDM, xc_grid=000099000590, mem_total=7500, num_basis=774, num_pairs=280621, num_threads=2
C  0.1418919570  -1.5624021737  0.7759971815
C  0.1418919570  -1.5624021737  -0.7759971815
C  0.1704765874  -0.0814917715  1.1831540379
C  -0.4642361413  0.6479443616  0.0000000000
C  0.1704765874  -0.0814917715  -1.1831540379
C  -0.2460670942  2.1500123384  0.0000000000
H  0.9839141862  -2.1150306907  1.1882800068
H  -0.7640188739  -2.0363478565  1.1518938233
H  0.9839141862  -2.1150306907  -1.1882800068
H  -0.7640188739  -2.0363478565  -1.1518938233
H  1.2028293772  0.2644189037  1.2848195390
H  -0.3355890523  0.1110745575  2.1288115264
H  -1.5386881824  0.4343178966  0.0000000000
H  -0.3355890523  0.1110745575  -2.1288115264
H  1.2028293772  0.2644189037  -1.2848195390
H  0.8220004586  2.3737476475  0.0000000000
H  -0.6860087019  2.6167679091  0.8811899460
H  -0.6860087019  2.6167679091  -0.8811899460