28
charge=0, multiplicity=1, basis=def2-QZVPPD, AUX_BASIS_CORR=rimp2-def2-QZVPPD, SCF_ALGORITHM=GDM, xc_grid=000099000590, mem_total=30000, num_basis=1224, num_pairs=640143, num_threads=8
C  1.4527187439  -0.1775501653  1.2634733162
C  1.4527187439  -0.1775501653  -1.2634733162
C  -1.4527187439  0.1775501653  1.2634733162
C  -1.4527187439  0.1775501653  -1.2634733162
C  0.7192722147  0.2613239580  0.0000000000
C  -0.7192722147  -0.2613239580  0.0000000000
C  0.7166073256  0.2614583780  -2.5251734365
C  0.7166073256  0.2614583780  2.5251734365
C  -0.7166073256  -0.2614583780  -2.5251734365
C  -0.7166073256  -0.2614583780  2.5251734365
H  0.6990536125  1.3544653811  -2.5676028655
H  0.6990536125  1.3544653811  2.5676028655
H  -0.6990536125  -1.3544653811  -2.5676028655
H  -0.6990536125  -1.3544653811  2.5676028655
H  -1.5382289968  1.2696342934  -1.2554954067
H  -1.5382289968  1.2696342934  1.2554954067
H  1.5382289968  -1.2696342934  -1.2554954067
H  1.5382289968  -1.2696342934  1.2554954067
H  -0.6658142616  -1.3594281733  0.0000000000
H  0.6658142616  1.3594281733  0.0000000000
H  1.2476472840  -0.0815967654  -3.4145279104
H  1.2476472840  -0.0815967654  3.4145279104
H  -1.2476472840  0.0815967654  -3.4145279104
H  -1.2476472840  0.0815967654  3.4145279104
H  -2.4709208799  -0.2187946233  -1.2555725438
H  -2.4709208799  -0.2187946233  1.2555725438
H  2.4709208799  0.2187946233  -1.2555725438
H  2.4709208799  0.2187946233  1.2555725438