15
charge=0, multiplicity=1, basis=def2-QZVPPD, AUX_BASIS_CORR=rimp2-def2-QZVPPD, SCF_ALGORITHM=GDM, xc_grid=000099000590, mem_total=7500, num_basis=645, num_pairs=202939, num_threads=2
C  -0.5883679724  -0.4862014045  -1.0233880504
C  -1.2048422451  -0.2640530221  0.3602604346
C  0.5883679724  0.4862014045  -1.0233880504
C  1.2048422451  0.2640530221  0.3602604346
C  0.0000000000  0.0000000000  1.2936428120
H  -1.2936785292  -0.3201466394  -1.8362230397
H  -0.2131463909  -1.5085799194  -1.1081831862
H  -1.8487325631  0.6153944925  0.3262712427
H  -1.8169271350  -1.1004275780  0.6924580054
H  0.2131463909  1.5085799194  -1.1081831862
H  1.2936785292  0.3201466394  -1.8362230397
H  1.8487325631  -0.6153944925  0.3262712427
H  1.8169271350  1.1004275780  0.6924580054
H  0.1919737960  -0.8529777706  1.9419831876
H  -0.1919737960  0.8529777706  1.9419831876