23
charge=0, multiplicity=1, basis=def2-QZVPPD, AUX_BASIS_CORR=rimp2-def2-QZVPPD, SCF_ALGORITHM=GDM, xc_grid=000099000590, mem_total=15000, num_basis=969, num_pairs=372246, num_threads=4
C  0.0000000000  -3.8045607954  -0.3368896271
C  0.0000000000  -2.5432922793  0.5169848244
C  0.0000000000  -1.2710096647  -0.3200610588
C  0.0000000000  0.0000000000  0.5185493332
C  0.0000000000  1.2710096647  -0.3200610588
C  0.0000000000  2.5432922793  0.5169848244
C  0.0000000000  3.8045607954  -0.3368896271
H  0.8796476868  -3.8364825157  -0.9795491792
H  0.0000000000  -4.7054312602  0.2747117749
H  -0.8796476868  -3.8364825157  -0.9795491792
H  0.8745326227  -2.5406994005  1.1714366858
H  -0.8745326227  -2.5406994005  1.1714366858
H  0.8753236807  -1.2713226811  -0.9760404859
H  -0.8753236807  -1.2713226811  -0.9760404859
H  0.8754520168  0.0000000000  1.1742853786
H  -0.8754520168  0.0000000000  1.1742853786
H  0.8753236807  1.2713226811  -0.9760404859
H  -0.8753236807  1.2713226811  -0.9760404859
H  0.8745326227  2.5406994005  1.1714366858
H  -0.8745326227  2.5406994005  1.1714366858
H  0.8796476868  3.8364825157  -0.9795491792
H  0.0000000000  4.7054312602  0.2747117749
H  -0.8796476868  3.8364825157  -0.9795491792