23
charge=0, multiplicity=1, basis=def2-QZVPPD, AUX_BASIS_CORR=rimp2-def2-QZVPPD, SCF_ALGORITHM=GDM, xc_grid=000099000590, mem_total=15000, num_basis=969, num_pairs=411698, num_threads=4
C  -1.3819028049  0.4342511045  -1.2473388864
C  -0.8961135808  -0.3014373063  0.0000000000
C  0.6339490751  -0.4242540845  0.0000000000
C  1.4250645293  0.8785969655  0.0000000000
C  2.9272326005  0.6202786388  0.0000000000
C  -1.3819028049  0.4342511045  1.2473388864
C  -1.4822865098  -1.7121018279  0.0000000000
H  -1.0436221897  1.4698287780  -1.2615598606
H  -1.0196997365  -0.0552520148  -2.1531392265
H  -2.4723724958  0.4413997558  -1.2819941147
H  0.9292833521  -1.0119421666  -0.8760792238
H  0.9292833521  -1.0119421666  0.8760792238
H  1.1619829592  1.4741615453  -0.8753204434
H  1.1619829592  1.4741615453  0.8753204434
H  3.2214402144  0.0481526910  -0.8798262786
H  3.4944893950  1.5498253475  0.0000000000
H  3.2214402144  0.0481526910  0.8798262786
H  -1.0436221897  1.4698287780  1.2615598606
H  -2.4723724958  0.4413997558  1.2819941147
H  -1.0196997365  -0.0552520148  2.1531392265
H  -1.1598085839  -2.2661102813  -0.8829548032
H  -1.1598085839  -2.2661102813  0.8829548032
H  -2.5729369392  -1.6798865568  0.0000000000