21
charge=0, multiplicity=1, basis=def2-QZVPPD, mem_total=15000, AUX_BASIS_CORR=rimp2-def2-QZVPPD, SCF_ALGORITHM=GDM, xc_grid=000099000590, num_basis=903, num_pairs=378453, num_threads=4
C  1.3309037345  1.0490520445  -0.7755038308
C  1.3309037345  1.0490520445  0.7755038308
C  -0.0528259287  0.5171959479  -1.1825234514
C  -0.5099247141  -0.3452199099  0.0000000000
C  -0.0528259287  0.5171959479  1.1825234514
C  -2.0112055423  -0.5863578351  0.0000000000
C  0.2294692749  -1.6817395435  0.0000000000
H  2.1181709926  0.4004723388  -1.1568411749
H  1.5152962575  2.0405799078  -1.1845152069
H  2.1181709926  0.4004723388  1.1568411749
H  1.5152962575  2.0405799078  1.1845152069
H  -0.0392022635  -0.0362955684  -2.1226076917
H  -0.7533979684  1.3478132462  -1.2990165060
H  -0.0392022635  -0.0362955684  2.1226076917
H  -0.7533979684  1.3478132462  1.2990165060
H  -2.5546770811  0.3594677132  0.0000000000
H  -2.3162363287  -1.1525758438  -0.8815094667
H  -2.3162363287  -1.1525758438  0.8815094667
H  1.3110377557  -1.5470779286  0.0000000000
H  -0.0350583419  -2.2657783210  0.8827724127
H  -0.0350583419  -2.2657783210  -0.8827724127