26
charge=0, multiplicity=1, basis=def2-QZVPPD, AUX_BASIS_CORR=rimp2-def2-QZVPPD, SCF_ALGORITHM=GDM, xc_grid=000099000590, mem_total=30000, num_basis=1158, num_pairs=615516, num_threads=8
C  0.8852929537  0.8852929537  -0.8852929537
C  -0.8852929537  -0.8852929537  -0.8852929537
C  -0.8852929537  0.8852929537  0.8852929537
C  0.8852929537  -0.8852929537  0.8852929537
C  1.7664994923  0.0000000000  0.0000000000
C  0.0000000000  -1.7664994923  0.0000000000
C  0.0000000000  0.0000000000  1.7664994923
C  0.0000000000  0.0000000000  -1.7664994923
C  -1.7664994923  0.0000000000  0.0000000000
C  0.0000000000  1.7664994923  0.0000000000
H  2.4144585289  0.6229476621  0.6229476621
H  0.6229476621  -2.4144585289  -0.6229476621
H  -0.6229476621  -0.6229476621  2.4144585289
H  -0.6229476621  0.6229476621  -2.4144585289
H  -2.4144585289  0.6229476621  -0.6229476621
H  -0.6229476621  2.4144585289  -0.6229476621
H  -0.6229476621  -2.4144585289  0.6229476621
H  0.6229476621  0.6229476621  2.4144585289
H  2.4144585289  -0.6229476621  -0.6229476621
H  -2.4144585289  -0.6229476621  0.6229476621
H  0.6229476621  2.4144585289  0.6229476621
H  0.6229476621  -0.6229476621  -2.4144585289
H  1.5160292005  1.5160292005  -1.5160292005
H  -1.5160292005  -1.5160292005  -1.5160292005
H  -1.5160292005  1.5160292005  1.5160292005
H  1.5160292005  -1.5160292005  1.5160292005