23
charge=0, multiplicity=1, basis=def2-QZVPPD, AUX_BASIS_CORR=rimp2-def2-QZVPPD, SCF_ALGORITHM=GDM, xc_grid=000099000590, mem_total=15000, num_basis=969, num_pairs=389913, num_threads=4
C  -2.9021984060  0.5366413132  0.1973621105
C  -1.6183470381  -0.2706698196  0.3538162527
C  -0.4126481629  0.5693552236  -0.0649248774
C  0.9399396648  -0.0883352252  0.1769252501
C  2.1107212303  0.8341649894  -0.1377516399
C  3.4587433105  0.1655665095  0.0970330749
C  -1.7146039844  -1.5667669052  -0.4439149806
H  -3.0478159444  0.8128019829  -0.8486321408
H  -3.7727518332  -0.0370946431  0.5149203512
H  -2.8675216888  1.4544108292  0.7838894005
H  -1.4974706554  -0.5247073811  1.4119161996
H  -0.5112451493  0.8187811214  -1.1272097248
H  -0.4423589569  1.5187180095  0.4779837686
H  1.0326090857  -0.9926392122  -0.4283693917
H  1.0041353116  -0.4069728999  1.2221225264
H  2.0373834677  1.1626677684  -1.1770746427
H  2.0329013806  1.7345053626  0.4758605124
H  3.5654908834  -0.7198232482  -0.5295281597
H  4.2863973812  0.8363165572  -0.1283311179
H  3.5574357771  -0.1506100512  1.1353661137
H  -1.7987033743  -1.3455693092  -1.5100943307
H  -0.8438971071  -2.2037802086  -0.2998764048
H  -2.5961951921  -2.1369607635  -0.1514881498