21
charge=0, multiplicity=1, basis=def2-QZVPPD, AUX_BASIS_CORR=rimp2-def2-QZVPPD, SCF_ALGORITHM=GDM, xc_grid=000099000590, mem_total=15000, num_basis=903, num_pairs=372327, num_threads=4
C  -0.5742610368  0.8468462106  0.0000000000
C  0.0923444970  0.2776770579  1.2502763074
C  0.0797649223  -1.2480307022  1.2559321260
C  0.7450339360  -1.8026979372  0.0000000000
C  0.0797649223  -1.2480307022  -1.2559321260
C  0.0923444970  0.2776770579  -1.2502763074
C  -0.5377459843  2.3682114229  0.0000000000
H  -1.6208242472  0.5205054218  0.0000000000
H  1.1290441718  0.6308800677  1.2816736840
H  -0.4009618906  0.6676170982  2.1434693449
H  -0.9560871792  -1.5975434884  1.2964456543
H  0.5769457573  -1.6279397910  2.1497467550
H  1.8017225305  -1.5191448916  0.0000000000
H  0.7090953496  -2.8931009189  0.0000000000
H  -0.9560871792  -1.5975434884  -1.2964456543
H  0.5769457573  -1.6279397910  -2.1497467550
H  -0.4009618906  0.6676170982  -2.1434693449
H  1.1290441718  0.6308800677  -1.2816736840
H  0.4951522560  2.7207774378  0.0000000000
H  -1.0301366806  2.7766413851  -0.8827240263
H  -1.0301366806  2.7766413851  0.8827240263