34
charge=0, multiplicity=1, basis=def2-QZVPPD, AUX_BASIS_CORR=rimp2-def2-QZVPPD, SCF_ALGORITHM=GDM, xc_grid=000099000590, mem_total=60000, num_basis=1542, num_pairs=1030471, num_threads=16
C  0.0000000000  0.0000000000  2.3100713509
C  -1.2471689027  0.7200533017  1.7945810738
H  -2.1473413972  0.2220493163  2.1665849488
C  -1.2472152842  0.7200800801  0.2663844393
H  -1.2659710475  1.7486275424  2.1665849488
C  0.0000000000  -1.4401066034  1.7945810738
H  0.0000000000  0.0000000000  3.4025377614
C  1.2471689027  0.7200533017  1.7945810738
C  -1.2472152842  -0.7200800801  -0.2663844393
C  0.0000000000  1.4401601602  -0.2663844393
H  -2.1402193867  1.2356562390  -0.1039492161
H  -2.1402193867  -1.2356562390  0.1039492161
C  0.0000000000  0.0000000000  -2.3100713509
C  -1.2471689027  -0.7200533017  -1.7945810738
C  0.0000000000  1.4401066034  -1.7945810738
H  -0.8813703498  1.9706768588  -2.1665849488
H  0.0000000000  2.4713124780  0.1039492161
H  -0.8813703498  -1.9706768588  2.1665849488
H  0.8813703498  -1.9706768588  2.1665849488
C  0.0000000000  -1.4401601602  0.2663844393
H  2.1473413972  0.2220493163  2.1665849488
H  1.2659710475  1.7486275424  2.1665849488
C  1.2472152842  0.7200800801  0.2663844393
H  -1.2659710475  -1.7486275424  -2.1665849488
H  2.1473413972  -0.2220493163  -2.1665849488
H  0.0000000000  -2.4713124780  -0.1039492161
H  2.1402193867  1.2356562390  -0.1039492161
C  1.2472152842  -0.7200800801  -0.2663844393
H  -2.1473413972  -0.2220493163  -2.1665849488
C  1.2471689027  -0.7200533017  -1.7945810738
H  0.8813703498  1.9706768588  -2.1665849488
H  0.0000000000  0.0000000000  -3.4025377614
H  2.1402193867  -1.2356562390  0.1039492161
H  1.2659710475  -1.7486275424  -2.1665849488