32
charge=0, multiplicity=1, basis=def2-QZVPPD, AUX_BASIS_CORR=rimp2-def2-QZVPPD, SCF_ALGORITHM=GDM, xc_grid=000099000590, mem_total=60000, num_basis=1416, num_pairs=865817, num_threads=16
C  0.0000000000  1.2492856998  -1.2770626980
C  0.0000000000  -1.2492856998  -1.2770626980
C  1.2669886806  0.0000000000  0.5020664236
C  -1.2669886806  0.0000000000  0.5020664236
C  0.0000000000  0.0000000000  -2.1602472876
C  1.2472809712  1.2440061874  -0.3919903595
C  -1.2472809712  1.2440061874  -0.3919903595
C  -1.2472809712  -1.2440061874  -0.3919903595
C  1.2472809712  -1.2440061874  -0.3919903595
C  0.0000000000  0.0000000000  1.3622880487
H  0.8812269234  0.0000000000  -2.8077428943
H  -0.8812269234  0.0000000000  -2.8077428943
H  1.2680441583  2.1417506230  0.2345836498
H  -1.2680441583  2.1417506230  0.2345836498
H  -1.2680441583  -2.1417506230  0.2345836498
H  1.2680441583  -2.1417506230  0.2345836498
H  2.1493031543  1.2598347024  -1.0123667375
H  -2.1493031543  1.2598347024  -1.0123667375
H  -2.1493031543  -1.2598347024  -1.0123667375
H  2.1493031543  -1.2598347024  -1.0123667375
H  0.0000000000  -0.8820767254  2.0133951303
H  0.0000000000  0.8820767254  2.0133951303
H  0.0000000000  2.1435569663  -1.9048620342
H  0.0000000000  -2.1435569663  -1.9048620342
C  2.5049848046  0.0000000000  1.3843620693
C  -2.5049848046  0.0000000000  1.3843620693
H  2.5244725048  0.8837689843  2.0248749056
H  -2.5244725048  0.8837689843  2.0248749056
H  -2.5244725048  -0.8837689843  2.0248749056
H  2.5244725048  -0.8837689843  2.0248749056
H  3.4131339913  0.0000000000  0.7786207059
H  -3.4131339913  0.0000000000  0.7786207059