21
charge=0, multiplicity=1, basis=def2-QZVPPD, mem_total=15000, AUX_BASIS_CORR=rimp2-def2-QZVPPD, SCF_ALGORITHM=GDM, xc_grid=000099000590, num_basis=903, num_pairs=366600, num_threads=4
C  0.0000000000  0.0000000000  -0.9998383002
C  0.9477493170  -0.8026824427  -0.0782320509
C  -0.9477493170  0.8026824427  -0.0782320509
C  -0.7418296140  0.1740384667  1.3037267464
C  0.7418296140  -0.1740384667  1.3037267464
C  2.3933086161  -0.8147799251  -0.5461151175
C  -2.3933086161  0.8147799251  -0.5461151175
H  -0.5686744816  -0.6666709435  -1.6501994224
H  0.5686744816  0.6666709435  -1.6501994224
H  0.5870131904  -1.8332759104  -0.0257195001
H  -0.5870131904  1.8332759104  -0.0257195001
H  -1.0436234999  0.8345619848  2.1165218137
H  -1.3344549580  -0.7425818002  1.3795618941
H  1.3344549580  0.7425818002  1.3795618941
H  1.0436234999  -0.8345619848  2.1165218137
H  2.7754927886  0.2052604196  -0.6098664312
H  2.4886096303  -1.2694334941  -1.5322195648
H  3.0302312149  -1.3705555401  0.1424607827
H  -2.7754927886  -0.2052604196  -0.6098664312
H  -2.4886096303  1.2694334941  -1.5322195648
H  -3.0302312149  1.3705555401  0.1424607827