23
charge=0, multiplicity=1, basis=def2-QZVPPD, AUX_BASIS_CORR=rimp2-def2-QZVPPD, SCF_ALGORITHM=GDM, xc_grid=000099000590, mem_total=15000, num_basis=969, num_pairs=414625, num_threads=4
C  -2.0556877047  -1.9090154176  0.1787330452
C  -0.6532822510  -1.4306323190  -0.1799037501
C  -0.4765005566  0.0858637799  -0.0767774418
C  0.8253440825  0.5463149754  -0.7563410559
C  2.0850533910  0.0462877854  -0.0542362315
C  0.8813582495  2.0632862577  -0.9099452900
C  -0.5913590943  0.5541512012  1.3719095786
H  -2.8028783561  -1.4081047395  -0.4376246207
H  -2.1572402309  -2.9814891001  0.0190074495
H  -2.2954294714  -1.7098357492  1.2215412383
H  -0.4213457847  -1.7407875453  -1.2020426295
H  0.0736947864  -1.9258732392  0.4681252744
H  -1.2960485934  0.5436285722  -0.6435143172
H  0.8109101550  0.1149062279  -1.7624487845
H  2.1766113621  0.4827644104  0.9405749021
H  2.9710692080  0.3349114061  -0.6197010016
H  2.0963905624  -1.0376705134  0.0483580490
H  0.9750847081  2.5552459446  0.0580874632
H  -0.0160861118  2.4450609595  -1.3974811164
H  1.7428010661  2.3581583501  -1.5092499703
H  0.1474798750  0.0566199146  2.0010469777
H  -1.5752716646  0.3271265656  1.7784025644
H  -0.4446676268  1.6290822728  1.4634796672