23
charge=0, multiplicity=1, basis=def2-QZVPPD, AUX_BASIS_CORR=rimp2-def2-QZVPPD, SCF_ALGORITHM=GDM, xc_grid=000099000590, mem_total=15000, num_basis=969, num_pairs=396292, num_threads=4
C  -3.1690525860  0.9802504529  -0.2805553578
C  -2.0052259893  0.0067461433  -0.4179145883
C  -0.6928855661  0.6099007500  0.0682666450
C  0.5429481508  -0.2602466563  -0.1596762940
C  1.8044666750  0.5264166941  0.1986221013
C  3.1076952133  -0.1799641277  -0.1549485306
C  0.4586316277  -1.5652366935  0.6255958326
H  -2.9904769241  1.8832844899  -0.8640821400
H  -4.1044827384  0.5400955201  -0.6225985266
H  -3.3013035306  1.2795381627  0.7591916879
H  -1.8946587879  -0.2898999967  -1.4641223135
H  -2.2294146877  -0.9026898804  0.1403831168
H  -0.5424987585  1.5677667173  -0.4387596388
H  -0.7720772462  0.8369434696  1.1373144347
H  0.5914879125  -0.5003810841  -1.2285434543
H  1.7687037164  1.4885748118  -0.3175118524
H  1.7828225856  0.7505246781  1.2696468688
H  3.1256370730  -0.4465183557  -1.2122153161
H  3.9660518504  0.4610833641  0.0409439352
H  3.2433839398  -1.0930027238  0.4212027491
H  0.4039426303  -1.3538117773  1.6959450694
H  -0.4219897436  -2.1431882435  0.3519384001
H  1.3282951835  -2.1961857149  0.4518771714