20
charge=0, multiplicity=1, basis=def2-QZVPPD, AUX_BASIS_CORR=rimp2-def2-QZVPPD, SCF_ALGORITHM=GDM, xc_grid=000099000590, mem_total=15000, num_basis=840, num_pairs=311057, num_threads=4
C  -2.3044213692  -0.5849373530  -0.1529206320
C  -1.0486746939  0.2575112881  -0.3476918614
C  0.1920823645  -0.5506239851  0.0278485732
C  1.5186516185  0.1391722348  -0.2645343799
C  2.7121017438  -0.7595920897  0.0333853633
C  -1.1547733351  1.5476567144  0.4585818838
H  -2.4108477588  -0.8640973792  0.8970013692
H  -3.1994278119  -0.0357015466  -0.4443951065
H  -2.2619428934  -1.5018357739  -0.7402347979
H  -0.9696770805  0.5184269214  -1.4081273950
H  0.1393853799  -0.7998762153  1.0935375795
H  0.1670862992  -1.5020695148  -0.5116900422
H  1.6005680823  1.0538500221  0.3237915510
H  1.5385226069  0.4422400593  -1.3145386501
H  2.7151784288  -1.0626308475  1.0804284514
H  3.6556251113  -0.2560549163  -0.1712847271
H  2.6768746273  -1.6650714994  -0.5720879937
H  -1.1932335852  1.3203808077  1.5261373708
H  -2.0632579652  2.0916536895  0.2007451893
H  -0.3098197693  2.2115993837  0.2860482542