38
charge=0, multiplicity=1, basis=def2-QZVPPD, AUX_BASIS_CORR=rimp2-def2-QZVPPD, SCF_ALGORITHM=GDM, xc_grid=000099000590, mem_total=120000, num_basis=1674, num_pairs=1146742, num_threads=32
C  -0.8939584461  -0.8939584461  -0.8939584461
C  0.8939584461  0.8939584461  -0.8939584461
C  -0.8939584461  0.8939584461  0.8939584461
C  0.8939584461  -0.8939584461  0.8939584461
C  -1.7562809939  0.0000000000  0.0000000000
C  0.0000000000  0.0000000000  -1.7562809939
C  0.0000000000  1.7562809939  0.0000000000
C  0.0000000000  -1.7562809939  0.0000000000
C  1.7562809939  0.0000000000  0.0000000000
C  0.0000000000  0.0000000000  1.7562809939
H  -2.4069364647  -0.6238808127  0.6238808127
H  0.6238808127  -0.6238808127  -2.4069364647
H  0.6238808127  2.4069364647  0.6238808127
H  -0.6238808127  -2.4069364647  0.6238808127
H  2.4069364647  -0.6238808127  -0.6238808127
H  0.6238808127  0.6238808127  2.4069364647
H  -0.6238808127  -0.6238808127  2.4069364647
H  0.6238808127  -2.4069364647  -0.6238808127
H  2.4069364647  0.6238808127  0.6238808127
H  -2.4069364647  0.6238808127  -0.6238808127
H  -0.6238808127  0.6238808127  -2.4069364647
H  -0.6238808127  2.4069364647  -0.6238808127
C  -1.7719499264  -1.7719499264  -1.7719499264
C  1.7719499264  1.7719499264  -1.7719499264
C  -1.7719499264  1.7719499264  1.7719499264
C  1.7719499264  -1.7719499264  1.7719499264
H  1.1625375885  2.4123669242  -2.4123669242
H  -2.4123669242  2.4123669242  1.1625375885
H  -2.4123669242  -1.1625375885  -2.4123669242
H  2.4123669242  1.1625375885  -2.4123669242
H  -1.1625375885  2.4123669242  2.4123669242
H  -2.4123669242  -2.4123669242  -1.1625375885
H  2.4123669242  2.4123669242  -1.1625375885
H  -2.4123669242  1.1625375885  2.4123669242
H  -1.1625375885  -2.4123669242  -2.4123669242
H  1.1625375885  -2.4123669242  2.4123669242
H  2.4123669242  -2.4123669242  1.1625375885
H  2.4123669242  -1.1625375885  2.4123669242