21
charge=0, multiplicity=1, basis=def2-QZVPPD, AUX_BASIS_CORR=rimp2-def2-QZVPPD, SCF_ALGORITHM=GDM, xc_grid=000099000590, mem_total=15000, num_basis=903, num_pairs=366707, num_threads=4
C  -0.7897887156  0.5627264296  0.0000000000
C  -0.3320266062  -0.2663722572  1.1971907964
C  -0.3320266062  -0.2663722572  -1.1971907964
C  1.0735703667  -0.7308407589  -0.7734397185
C  1.0735703667  -0.7308407589  0.7734397185
C  -0.3574948679  0.4659381920  2.5272367367
C  -0.3574948679  0.4659381920  -2.5272367367
H  -0.2620259322  1.5235532912  0.0000000000
H  -1.8612416462  0.7677828724  0.0000000000
H  -0.9838122509  -1.1430234542  1.2600107902
H  -0.9838122509  -1.1430234542  -1.2600107902
H  1.3217904320  -1.7038649247  -1.1953109831
H  1.8121982339  -0.0223527487  -1.1527558193
H  1.3217904320  -1.7038649247  1.1953109831
H  1.8121982339  -0.0223527487  1.1527558193
H  0.2750029561  1.3537828567  2.4793310258
H  0.0138202082  -0.1651646875  3.3349235821
H  -1.3665203249  0.7848664861  2.7884627850
H  0.2750029561  1.3537828567  -2.4793310258
H  -1.3665203249  0.7848664861  -2.7884627850
H  0.0138202082  -0.1651646875  -3.3349235821