28
charge=0, multiplicity=1, basis=def2-QZVPPD, AUX_BASIS_CORR=rimp2-def2-QZVPPD, SCF_ALGORITHM=GDM, xc_grid=000099000590, mem_total=30000, num_basis=1224, num_pairs=649686, num_threads=8
C  0.3272438819  0.1999551725  0.2833451253
C  1.6840422860  0.8863238868  0.4734840783
C  -0.5322770809  1.3893506203  -0.1709612431
C  -0.1728043348  -0.4434375302  1.5737713993
C  0.4224481544  -0.8693961269  -0.8131170335
C  -0.8859855734  -1.6313102039  -1.0111545131
C  -1.3607545953  -2.2498608864  0.2999493780
C  -1.4931203969  -1.1858075635  1.3852830043
C  1.8197082790  1.8470368519  -0.7180529546
C  0.3656460348  2.1811445321  -1.1366286121
H  2.5039820448  0.1697151070  0.5434404959
H  1.6585468879  1.4510641631  1.4095485751
H  -1.4789854812  1.0995333287  -0.6249478499
H  -0.7663146347  1.9972782023  0.7073901830
H  -0.2711589232  0.3280961043  2.3424979612
H  0.5832031713  -1.1521678640  1.9296818761
H  0.7423097015  -0.4179837995  -1.7550108320
H  1.2037688261  -1.5812956320  -0.5254303043
H  -0.7516933501  -2.4049633033  -1.7690923204
H  -1.6561335960  -0.9552274574  -1.3907250324
H  -2.3094267195  -2.7689780316  0.1550597060
H  -0.6332040948  -3.0001594185  0.6245209832
H  -2.2757273933  -0.4760729785  1.1044489059
H  -1.8044573933  -1.6411086697  2.3268796216
H  2.3850849215  2.7385938403  -0.4533041320
H  2.3527679033  1.3673431983  -1.5376110466
H  0.1595455091  3.2488629868  -1.0876620622
H  0.1837459656  1.8734714710  -2.1656033570