23
charge=0, multiplicity=1, basis=def2-QZVPPD, mem_total=15000, AUX_BASIS_CORR=rimp2-def2-QZVPPD, SCF_ALGORITHM=GDM, xc_grid=000099000590, num_basis=969, num_pairs=406989, num_threads=4
C  2.4158459042  -0.8113849157  -0.3093054353
C  1.0874596501  -0.9673379380  0.4217016512
C  0.0000000000  0.0000000000  -0.0529530346
C  0.2940094033  1.4254366516  0.4217016512
C  -0.5052430029  2.4978763825  -0.3093054353
C  -1.3814690534  -0.4580987136  0.4217016512
C  -1.9106029013  -1.6864914668  -0.3093054353
H  2.8322446278  0.1873363448  -0.1897026521
H  3.1546665933  -1.5202927759  0.0616486485
H  2.2873797963  -0.9918409794  -1.3766745170
H  1.2314300958  -0.8204762715  1.4964504818
H  0.7420573692  -1.9946077623  0.2970170769
H  0.0000000000  0.0000000000  -1.1504527273
H  1.3563523081  1.6399444139  0.2970170769
H  0.0948382464  1.4766878817  1.4964504818
H  -0.2847304135  2.4768495014  -1.3766745170
H  -0.2607211316  3.4921677983  0.0616486485
H  -1.5783603476  2.3591276251  -0.1897026521
H  -1.3262683422  -0.6562116102  1.4964504818
H  -2.0984096773  0.3546633484  0.2970170769
H  -1.2538842803  -2.5464639698  -0.1897026521
H  -2.8939454618  -1.9718750224  0.0616486485
H  -2.0026493829  -1.4850085220  -1.3766745170