23
charge=0, multiplicity=1, basis=def2-QZVPPD, AUX_BASIS_CORR=rimp2-def2-QZVPPD, SCF_ALGORITHM=GDM, xc_grid=000099000590, mem_total=15000, num_basis=969, num_pairs=409069, num_threads=4
C  -1.4818861610  1.1382888937  -1.0280370205
C  -1.2965036275  -0.0803184211  -0.1310642368
C  0.0000000000  0.0000000000  0.6735973051
C  1.2965036275  0.0803184211  -0.1310642368
C  2.4823122346  0.2195362478  0.8179782766
C  -2.4823122346  -0.2195362478  0.8179782766
C  1.4818861610  -1.1382888937  -1.0280370205
H  -1.4768609845  2.0504903791  -0.4274160301
H  -0.6941742824  1.2236586296  -1.7751414040
H  -2.4354901888  1.0917321147  -1.5539937634
H  -1.2633755663  -0.9730985368  -0.7607044474
H  -0.0617650163  0.8745404195  1.3310373864
H  0.0617650163  -0.8745404195  1.3310373864
H  1.2633755663  0.9730985368  -0.7607044474
H  2.5540221213  -0.6565518957  1.4651726831
H  2.3776657415  1.0976631090  1.4552323176
H  3.4203680074  0.3082053734  0.2701375859
H  -2.5540221213  0.6565518957  1.4651726831
H  -2.3776657415  -1.0976631090  1.4552323176
H  -3.4203680074  -0.3082053734  0.2701375859
H  1.4768609845  -2.0504903791  -0.4274160301
H  2.4354901888  -1.0917321147  -1.5539937634
H  0.6941742824  -1.2236586296  -1.7751414040