23
charge=0, multiplicity=1, basis=def2-QZVPPD, AUX_BASIS_CORR=rimp2-def2-QZVPPD, SCF_ALGORITHM=GDM, xc_grid=000099000590, mem_total=15000, num_basis=969, num_pairs=425925, num_threads=4
C  -1.5924646299  -0.8123489942  -1.3139242022
C  -1.2427496584  0.2722211924  -0.3014654218
C  0.0000000000  0.0000000000  0.5589799976
C  1.2427496584  -0.2722211924  -0.3014654218
C  1.5924646299  0.8123489942  -1.3139242022
C  0.2339033213  1.2156985903  1.4552420948
C  -0.2339033213  -1.2156985903  1.4552420948
H  -1.7669035039  -1.7726781136  -0.8312457326
H  -2.4992900133  -0.5499142749  -1.8571402512
H  -0.7985071089  -0.9465415365  -2.0473654322
H  -2.0888328992  0.4210593420  0.3754787083
H  -1.1064390375  1.2214396619  -0.8247585904
H  2.0888328992  -0.4210593420  0.3754787083
H  1.1064390375  -1.2214396619  -0.8247585904
H  1.7669035039  1.7726781136  -0.8312457326
H  2.4992900133  0.5499142749  -1.8571402512
H  0.7985071089  0.9465415365  -2.0473654322
H  0.3482617942  2.1295735658  0.8728294174
H  -0.6118588903  1.3575370211  2.1300187646
H  1.1309143000  1.0837267649  2.0628406465
H  -0.3482617942  -2.1295735658  0.8728294174
H  0.6118588903  -1.3575370211  2.1300187646
H  -1.1309143000  -1.0837267649  2.0628406465