26
charge=0, multiplicity=1, basis=def2-QZVPPD, AUX_BASIS_CORR=rimp2-def2-QZVPPD, SCF_ALGORITHM=GDM, xc_grid=000099000590, mem_total=30000, num_basis=1098, num_pairs=543091, num_threads=8
C  1.1453756934  -0.8524957489  -1.3371440743
C  0.0000000000  0.0000000000  -0.7824726860
C  0.0000000000  0.0000000000  0.7824726860
C  1.1453756934  0.8524957489  1.3371440743
C  0.1655951284  1.4181723218  -1.3371440743
C  -1.3109708218  -0.5656765729  -1.3371440743
C  0.1655951284  -1.4181723218  1.3371440743
C  -1.3109708218  0.5656765729  1.3371440743
H  2.1101213227  -0.5614006747  -0.9219423698
H  0.9928653645  -1.9123316370  -1.1379462901
H  1.2010963764  -0.7249449894  -2.4193278895
H  2.1101213227  0.5614006747  0.9219423698
H  0.9928653645  1.9123316370  1.1379462901
H  1.2010963764  0.7249449894  2.4193278895
H  1.1596950958  1.8160124467  -1.1379462901
H  0.0272725889  1.4026524690  -2.4193278895
H  -0.5688734153  2.1081190079  -0.9219423698
H  -1.5412479074  -1.5467183332  -0.9219423698
H  -2.1525604604  0.0963191903  -1.1379462901
H  -1.2283689653  -0.6777074797  -2.4193278895
H  1.1596950958  -1.8160124467  1.1379462901
H  0.0272725889  -1.4026524690  2.4193278895
H  -0.5688734153  -2.1081190079  0.9219423698
H  -1.5412479074  1.5467183332  0.9219423698
H  -2.1525604604  -0.0963191903  1.1379462901
H  -1.2283689653  0.6777074797  2.4193278895