28
charge=0, multiplicity=1, basis=def2-QZVPPD, AUX_BASIS_CORR=rimp2-def2-QZVPPD, SCF_ALGORITHM=GDM, xc_grid=000099000590, mem_total=30000, num_basis=1224, num_pairs=670499, num_threads=8
C  -0.5400853104  1.5401754856  -0.7743913226
C  -0.5400853104  1.5401754856  0.7743913226
C  -0.1628935847  0.2524046545  -1.5122563879
C  -0.1628935847  0.2524046545  1.5122563879
C  1.3094744585  -0.1563582773  1.3043142974
C  -1.1504448765  -0.8986961781  1.2813605942
C  -1.1504448765  -0.8986961781  -1.2813605942
C  1.3094744585  -0.1563582773  -1.3043142974
C  1.9505472813  0.3144196984  0.0000000000
C  -0.9697391679  -1.6970832878  0.0000000000
H  0.1295868348  2.3293062473  -1.1246587796
H  -1.5345751387  1.8255439806  -1.1239156407
H  0.1295868348  2.3293062473  1.1246587796
H  -1.5345751387  1.8255439806  1.1239156407
H  -0.2688419281  0.5028965053  -2.5718560440
H  -0.2688419281  0.5028965053  2.5718560440
H  1.4069805178  -1.2411659192  1.3955681215
H  1.9029074833  0.2644761623  2.1189514491
H  -1.0617459714  -1.5889733343  2.1246897629
H  -2.1687898956  -0.4980961271  1.3177206912
H  -1.0617459714  -1.5889733343  -2.1246897629
H  -2.1687898956  -0.4980961271  -1.3177206912
H  1.4069805178  -1.2411659192  -1.3955681215
H  1.9029074833  0.2644761623  -2.1189514491
H  2.9969098952  -0.0001755768  0.0000000000
H  1.9713893015  1.4066709678  0.0000000000
H  0.0157829930  -2.1667739019  0.0000000000
H  -1.6880354814  -2.5200842990  0.0000000000