32
charge=0, multiplicity=1, basis=def2-QZVPPD, AUX_BASIS_CORR=rimp2-def2-QZVPPD, SCF_ALGORITHM=GDM, xc_grid=000099000590, mem_total=60000, num_basis=1416, num_pairs=878280, num_threads=16
C  0.0000000000  -1.2484146324  -1.4618422044
C  0.0000000000  1.2484146324  -1.4618422044
C  -1.2444376973  0.0000000000  0.3226182646
C  1.2444376973  0.0000000000  0.3226182646
C  0.0000000000  0.0000000000  -2.3463003244
C  -1.2540092337  -1.2390026547  -0.5821164588
C  -1.2540092337  1.2390026547  -0.5821164588
C  1.2540092337  1.2390026547  -0.5821164588
C  1.2540092337  -1.2390026547  -0.5821164588
C  0.0000000000  0.0000000000  1.2378131179
H  -0.8817563922  0.0000000000  -2.9933038097
H  0.8817563922  0.0000000000  -2.9933038097
H  -1.3143292687  -2.1556639339  0.0059061718
H  -1.3143292687  2.1556639339  0.0059061718
H  1.3143292687  2.1556639339  0.0059061718
H  1.3143292687  -2.1556639339  0.0059061718
H  -2.1448750072  -1.2127979531  -1.2163758499
H  -2.1448750072  1.2127979531  -1.2163758499
H  2.1448750072  1.2127979531  -1.2163758499
H  2.1448750072  -1.2127979531  -1.2163758499
C  0.0000000000  1.2201744460  2.1623262246
C  0.0000000000  -1.2201744460  2.1623262246
H  0.0000000000  -2.1430165373  -2.0892203482
H  0.0000000000  2.1430165373  -2.0892203482
H  -2.1393842685  0.0000000000  0.9542912432
H  2.1393842685  0.0000000000  0.9542912432
H  0.8820198549  1.1988172907  2.8056069537
H  0.8820198549  -1.1988172907  2.8056069537
H  -0.8820198549  -1.1988172907  2.8056069537
H  -0.8820198549  1.1988172907  2.8056069537
H  0.0000000000  2.1686922826  1.6333325995
H  0.0000000000  -2.1686922826  1.6333325995