20
charge=0, multiplicity=1, basis=def2-QZVPPD, mem_total=15000, AUX_BASIS_CORR=rimp2-def2-QZVPPD, SCF_ALGORITHM=GDM, xc_grid=000099000590, num_basis=840, num_pairs=315616, num_threads=4
C  0.2967848113  0.1284017992  -2.5597546279
C  0.4455457954  -0.6376568749  -1.2506473605
C  0.1151384732  0.1774933188  0.0000000000
C  0.4455457954  -0.6376568749  1.2506473605
C  0.2967848113  0.1284017992  2.5597546279
C  -1.3399470723  0.6334972268  0.0000000000
H  0.8915097996  1.0421176316  -2.5412756245
H  0.6343998333  -0.4709892498  -3.4038634704
H  -0.7376427356  0.4072966865  -2.7503458462
H  1.4725113040  -1.0003413881  -1.1640295472
H  -0.1940085288  -1.5253575014  -1.2667312821
H  0.7569389184  1.0664083758  0.0000000000
H  1.4725113040  -1.0003413881  1.1640295472
H  -0.1940085288  -1.5253575014  1.2667312821
H  0.8915097996  1.0421176316  2.5412756245
H  0.6343998333  -0.4709892498  3.4038634704
H  -0.7376427356  0.4072966865  2.7503458462
H  -2.0039164525  -0.2338852489  0.0000000000
H  -1.5732072127  1.2347720606  -0.8765536756
H  -1.5732072127  1.2347720606  0.8765536756