28
charge=0, multiplicity=1, basis=def2-QZVPPD, AUX_BASIS_CORR=rimp2-def2-QZVPPD, SCF_ALGORITHM=GDM, xc_grid=000099000590, mem_total=30000, num_basis=1224, num_pairs=653291, num_threads=8
C  0.2285142591  0.7334017690  -0.7204462532
C  -0.2285142591  -0.7334017690  -0.7204462532
C  -1.7557937798  -0.8224274656  -0.7174970943
C  0.4065575427  -1.5167121129  0.4295579376
C  1.7557937798  0.8224274656  -0.7174970943
C  -0.4065575427  1.5167121129  0.4295579376
C  -2.3859231191  -0.0294666882  0.4251476464
C  1.9292891489  -1.4256130140  0.3856296452
C  2.3859231191  0.0294666882  0.4251476464
C  -1.9292891489  1.4256130140  0.3856296452
H  -0.1358777551  1.1881010134  -1.6493801380
H  0.1358777551  -1.1881010134  -1.6493801380
H  -2.0631389619  -1.8699805975  -0.6701348009
H  -2.1330670961  -0.4241213906  -1.6643502966
H  0.0543408465  -1.1362960097  1.3910874478
H  0.0853366208  -2.5596114613  0.3714605847
H  2.0631389619  1.8699805975  -0.6701348009
H  2.1330670961  0.4241213906  -1.6643502966
H  -0.0543408465  1.1362960097  1.3910874478
H  -0.0853366208  2.5596114613  0.3714605847
H  -2.1075551628  -0.4699552199  1.3854451036
H  -3.4735724550  -0.0877929403  0.3599515635
H  2.3682155110  -1.9864275758  1.2123724060
H  2.2885704819  -1.8878611059  -0.5388437518
H  2.1075551628  0.4699552199  1.3854451036
H  3.4735724550  0.0877929403  0.3599515635
H  -2.3682155110  1.9864275758  1.2123724060
H  -2.2885704819  1.8878611059  -0.5388437518