16
charge=0, multiplicity=1, basis=def2-QZVPPD, AUX_BASIS_CORR=rimp2-def2-QZVPPD, SCF_ALGORITHM=GDM, xc_grid=000099000590, mem_total=7500, num_basis=714, num_pairs=228083, num_threads=2
C  0.4216910000  1.8982890000  0.3982780000
H  1.0775730000  1.8992200000  1.2763590000
O  1.1917680000  1.9254970000  -0.8031620000
C  -0.4216910000  0.6365160000  0.3857160000
H  -1.0705020000  0.6488450000  1.2666750000
H  -1.0659960000  0.6479880000  -0.4930450000
C  0.4216910000  -0.6365160000  0.3857160000
H  1.0705020000  -0.6488450000  1.2666750000
H  1.0659960000  -0.6479880000  -0.4930450000
H  1.7314520000  2.7195240000  -0.7884110000
H  -0.2270850000  2.7772530000  0.4597550000
C  -0.4216910000  -1.8982890000  0.3982780000
H  0.2270850000  -2.7772530000  0.4597550000
H  -1.0775730000  -1.8992200000  1.2763590000
O  -1.1917680000  -1.9254970000  -0.8031620000
H  -1.7314520000  -2.7195240000  -0.7884110000