60
charge=0, multiplicity=1, basis=def2-TZVPD, mem_total=240000, AUX_BASIS_CORR=rimp2-def2-QZVPPD, SCF_ALGORITHM=GDM, xc_grid=000099000590, num_basis=2220, num_pairs=1980324, num_threads=64
C  -0.6267307500  -4.6381342500  0.0000000000
C  0.1647286100  -4.2483073200  -1.1465938900
C  1.4968469100  -3.9466791000  -0.7385380600
C  0.1647286100  -4.2483073200  1.1465938900
C  1.4968469100  -3.9466791000  0.7385380600
C  -0.5334277400  -3.2588377500  1.9102553400
C  -1.7833632300  -3.8173328900  0.0000000000
C  -1.7853834300  -3.0119275300  1.1965081900
C  -0.5334277400  -3.2588377500  -1.9102553400
C  -1.7853834300  -3.0119275300  -1.1965081900
C  0.1545550100  -2.1466549600  -2.4929985900
C  2.1436076600  -2.7729890100  -1.1800491900
C  1.5412467200  -1.8635424400  -2.1300862600
C  2.1436076600  -2.7729890100  1.1800491900
C  2.7641761100  -2.1852448600  0.0000000000
C  0.1545550100  -2.1466549600  2.4929985900
C  1.5412467200  -1.8635424400  2.1300862600
C  -0.6660053500  -1.0385945800  2.8457579100
C  -2.4247239800  -1.7348576300  1.2348722900
C  -1.9980185500  -0.8748042700  2.2668488700
C  -2.4247239800  -1.7348576300  -1.2348722900
C  -2.9224145200  -1.1297273900  0.0000000000
C  -0.6660053500  -1.0385945800  -2.8457579100
C  -1.9980185500  -0.8748042700  -2.2668488700
C  -0.1524888100  0.2550700200  -3.1156381300
C  2.0125361500  -0.4784069400  -2.1737325600
C  1.2048704900  0.5777569400  -2.7932458100
C  3.1329485400  -0.8787142700  0.0000000000
C  2.9351769200  -0.0517687000  -1.1688176900
C  2.0125361500  -0.4784069400  2.1737325600
C  2.9351769200  -0.0517687000  1.1688176900
C  -0.1524888100  0.2550700200  3.1156381300
C  1.2048704900  0.5777569400  2.7932458100
C  -2.3201584700  0.5206413400  2.2713110700
C  -1.2314955900  1.2266320900  2.8956825200
C  -3.2013556400  0.2598867200  0.0000000000
C  -2.9650450200  1.0882625800  1.1640897900
C  -2.3201584700  0.5206413400  -2.2713110700
C  -1.2314955900  1.2266320900  -2.8956825200
C  -2.9650450200  1.0882625800  -1.1640897900
C  -0.9560491700  2.5401070900  -2.5463401900
C  1.4785972100  1.9525034500  -2.4945481900
C  0.4131917300  2.9321973200  -2.4786582900
C  3.0282404300  1.3138230000  -0.7310147600
C  3.0282404300  1.3138230000  0.7310147600
C  2.3698242800  2.3202128700  -1.4264069100
C  1.4785972100  1.9525034500  2.4945481900
C  2.3698242800  2.3202128700  1.4264069100
C  -0.9560491700  2.5401070900  2.5463401900
C  0.4131917300  2.9321973200  2.4786582900
C  -2.6137087000  2.4306538800  0.7280375500
C  -2.6137087000  2.4306538800  -0.7280375500
C  -1.6613022300  3.1796933400  -1.4275444100
C  -1.6613022300  3.1796933400  1.4275444100
C  0.5822994400  3.8404612900  -1.3924615000
C  1.7829192300  3.4605241600  -0.6982524500
C  1.7829192300  3.4605241600  0.6982524500
C  0.5822994400  3.8404612900  1.3924615000
C  -0.6824639500  3.9834641000  -0.7045510500
C  -0.6824639500  3.9834641000  0.7045510500