60
charge=0, multiplicity=1, basis=def2-TZVPD, mem_total=240000, AUX_BASIS_CORR=rimp2-def2-QZVPPD, SCF_ALGORITHM=GDM, xc_grid=000099000590, num_basis=2220, num_pairs=1979301, num_threads=64
C  0.8939058700  -3.7632244800  -1.2437784900
C  -0.4650301400  -3.7283212800  -1.5231185100
C  -1.1905170900  -3.8898828900  -0.2574062200
C  1.0557848800  -3.9338546000  0.2142465200
C  -0.2390613200  -3.8627870900  0.8221398600
C  2.1260176600  -3.1269617400  0.6331435500
C  1.7540818300  -2.7223519100  -1.6696351300
C  2.6698950000  -2.4586391900  -0.5586016400
C  1.2462071900  -1.6203427200  -2.4455096800
C  -1.0322973800  -2.6280810000  -2.2339415700
C  -0.1988487100  -1.5613703200  -2.7127970000
C  -2.2974066700  -3.0248765300  -0.2834030200
C  -2.2871463700  -2.3103128700  -1.5687973200
C  -2.6133079000  -2.2813724700  0.8777175700
C  -0.4416592300  -2.9350094200  1.9186988400
C  -1.6765606300  -2.2089192700  1.9649869500
C  1.9926720500  -2.3732259800  1.8242426400
C  0.7011676500  -2.2461450700  2.4370575800
C  2.6744419000  -1.0978551800  1.9499018500
C  3.2638960500  -1.2244510900  -0.4375265300
C  3.3627865500  -0.5650256400  0.8659395700
C  2.0141833500  -0.3771346300  -2.4113919800
C  3.0530163300  -0.2078708200  -1.4389970100
C  1.3883586000  0.8230493600  -2.8790808200
C  -0.8416552600  -0.2457210200  -2.8847651200
C  -0.0253619000  0.9007329700  -3.0361019300
C  -2.8251616100  -1.0408497800  -1.6442989200
C  -2.1583629600  -0.0097636000  -2.3797360800
C  -3.2916824500  -1.0025129800  0.7683753600
C  -3.4551019600  -0.4168832300  -0.4823689400
C  -1.7745765300  -0.8679839700  2.5317692900
C  -2.8544561200  -0.1695324100  1.8768095400
C  0.5990283500  -0.8836408700  2.9697354200
C  1.8442855400  -0.2131516200  2.7497227100
C  -0.6299086500  -0.1544393100  2.9938348300
C  1.8692512400  1.1705283900  2.5395618900
C  3.3669260500  0.8655224700  0.6285941500
C  3.2659009500  1.0747078800  -0.7930056600
C  2.6983525000  1.7376128300  1.5047065100
C  1.8125123400  2.1119541600  -2.4050331800
C  2.6437368000  2.2433674700  -1.2780036000
C  -0.4729316400  2.2539644700  -2.6133961000
C  0.6761146500  2.9999543300  -2.2819783700
C  -2.5378289900  1.2775508000  -1.7998087400
C  -3.3396904500  1.0206366800  -0.6348291500
C  -1.6802252300  2.4202445800  -1.8702500400
C  -2.8458070100  1.2108332900  1.7653755300
C  -3.2139654400  1.8474845400  0.4987927400
C  -0.6024150500  1.3139746000  2.8817262200
C  0.6596483500  1.9584392500  2.6628961000
C  -1.7601221300  1.9835396500  2.3585386800
C  2.0103987500  2.9160298200  0.9988096800
C  2.0072914500  3.1995168400  -0.3655144300
C  0.7735383600  3.6707404800  -1.0183761800
C  0.7906549600  3.0952312300  1.7788131300
C  -1.6618477300  3.3355582500  -0.7449871600
C  -2.4588932900  3.0406981300  0.3934205300
C  -1.6159344200  3.1562519400  1.5725114200
C  -0.3812766300  3.8677733900  -0.2646021200
C  -0.3450144300  3.6565975800  1.1789723900