60
charge=0, multiplicity=1, basis=def2-TZVPD, mem_total=240000, AUX_BASIS_CORR=rimp2-def2-QZVPPD, SCF_ALGORITHM=GDM, xc_grid=000099000590, num_basis=2220, num_pairs=1977360, num_threads=64
C  -1.2362635000  0.0000000000  3.3299766200
C  -0.3820264300  -1.1757564600  3.3299766200
C  1.0001581800  -0.7266574500  3.3299766200
C  1.0001581800  0.7266574500  3.3299766200
C  -0.3820264300  1.1757564600  3.3299766200
C  2.3443358100  -2.6014576800  0.5946421400
C  3.1985728800  -1.4257012200  0.5946421400
C  2.9624675600  -0.6990437600  1.8309056400
C  1.9623093800  -1.4257012200  2.5949585100
C  1.5802829500  -2.6014576800  1.8309056400
C  3.1985728800  1.4257012200  0.5946421400
C  2.3443358100  2.6014576800  0.5946421400
C  1.5802829500  2.6014576800  1.8309056400
C  1.9623093800  1.4257012200  2.5949585100
C  2.9624675600  0.6990437600  1.8309056400
C  -0.3675090500  3.4825894900  0.5946421400
C  -1.7496936700  3.0334904800  0.5946421400
C  -1.9857989900  2.3068330300  1.8309056400
C  -0.7495354900  2.3068330300  2.5949585100
C  0.2506227000  3.0334904800  1.8309056400
C  -3.4257059700  0.7266574500  0.5946421400
C  -3.4257059700  -0.7266574500  0.5946421400
C  -2.8075742200  -1.1757564600  1.8309056400
C  -2.4255477900  0.0000000000  2.5949585100
C  -2.8075742200  1.1757564600  1.8309056400
C  -1.7496936700  -3.0334904800  0.5946421400
C  -0.3675090500  -3.4825894900  0.5946421400
C  0.2506227000  -3.0334904800  1.8309056400
C  -0.7495354900  -2.3068330300  2.5949585100
C  -1.9857989900  -2.3068330300  1.8309056400
C  -0.2506227000  -3.0334904800  -1.8309056400
C  0.7495354900  -2.3068330300  -2.5949585100
C  1.9857989900  -2.3068330300  -1.8309056400
C  1.7496936700  -3.0334904800  -0.5946421400
C  0.3675090500  -3.4825894900  -0.5946421400
C  2.8075742200  -1.1757564600  -1.8309056400
C  2.4255477900  0.0000000000  -2.5949585100
C  2.8075742200  1.1757564600  -1.8309056400
C  3.4257059700  0.7266574500  -0.5946421400
C  3.4257059700  -0.7266574500  -0.5946421400
C  1.9857989900  2.3068330300  -1.8309056400
C  0.7495354900  2.3068330300  -2.5949585100
C  -0.2506227000  3.0334904800  -1.8309056400
C  0.3675090500  3.4825894900  -0.5946421400
C  1.7496936700  3.0334904800  -0.5946421400
C  -1.5802829500  2.6014576800  -1.8309056400
C  -1.9623093800  1.4257012200  -2.5949585100
C  -2.9624675600  0.6990437600  -1.8309056400
C  -3.1985728800  1.4257012200  -0.5946421400
C  -2.3443358100  2.6014576800  -0.5946421400
C  -2.9624675600  -0.6990437600  -1.8309056400
C  -1.9623093800  -1.4257012200  -2.5949585100
C  -1.5802829500  -2.6014576800  -1.8309056400
C  -2.3443358100  -2.6014576800  -0.5946421400
C  -3.1985728800  -1.4257012200  -0.5946421400
C  -1.0001581800  -0.7266574500  -3.3299766200
C  -1.0001581800  0.7266574500  -3.3299766200
C  0.3820264300  1.1757564600  -3.3299766200
C  1.2362635000  0.0000000000  -3.3299766200
C  0.3820264300  -1.1757564600  -3.3299766200