60
charge=0, multiplicity=1, basis=def2-TZVPD, mem_total=240000, AUX_BASIS_CORR=rimp2-def2-QZVPPD, SCF_ALGORITHM=GDM, xc_grid=000099000590, num_basis=2220, num_pairs=1980508, num_threads=64
C  -0.5674985400  3.9920460000  0.6872184500
C  -0.5674985400  3.9920460000  -0.6872184500
C  0.8360714600  3.8621844900  -1.1555905900
C  0.8360714600  3.8621844900  1.1555905900
C  1.6633578300  3.6523110800  0.0000000000
C  0.8411786600  2.9892688300  2.2439958700
C  -1.3794664000  3.0781862300  1.4171779100
C  -0.5713118400  2.6569709000  2.5394190900
C  -2.2041350700  2.1112841600  0.7320895600
C  -1.3794664000  3.0781862300  -1.4171779100
C  -2.2041350700  2.1112841600  -0.7320895600
C  0.8411786600  2.9892688300  -2.2439958700
C  -0.5713118400  2.6569709000  -2.5394190900
C  1.8167922400  1.9093489400  -2.3036639700
C  2.5371934900  2.5316172900  0.0000000000
C  2.6149908000  1.6797559300  -1.1575187900
C  1.8167922400  1.9093489400  2.3036639700
C  2.6149908000  1.6797559300  1.1575187900
C  1.4855803100  0.7581246600  3.0893431300
C  -0.8657177700  1.4957295100  3.2107951400
C  0.2146567200  0.6813452500  3.7098769800
C  -2.4864344900  0.8566754600  1.4491042100
C  -1.8869190400  0.6031667500  2.7127769000
C  -2.8799253200  -0.3017404200  0.7040290500
C  -2.4864344900  0.8566754600  -1.4491042100
C  -2.8799253200  -0.3017404200  -0.7040290500
C  -0.8657177700  1.4957295100  -3.2107951400
C  -1.8869190400  0.6031667500  -2.7127769000
C  1.4855803100  0.7581246600  -3.0893431300
C  0.2146567200  0.6813452500  -3.7098769800
C  1.8869190400  -0.6031667500  -2.7127769000
C  2.8799253200  0.3017404200  -0.7040290500
C  2.8799253200  0.3017404200  0.7040290500
C  2.4864344900  -0.8566754600  -1.4491042100
C  1.8869190400  -0.6031667500  2.7127769000
C  2.4864344900  -0.8566754600  1.4491042100
C  -0.2146567200  -0.6813452500  3.7098769800
C  -1.4855803100  -0.7581246600  3.0893431300
C  0.8657177700  -1.4957295100  3.2107951400
C  -2.6149908000  -1.6797559300  1.1575187900
C  -1.8167922400  -1.9093489400  2.3036639700
C  -2.6149908000  -1.6797559300  -1.1575187900
C  -2.5371934900  -2.5316172900  0.0000000000
C  -1.4855803100  -0.7581246600  -3.0893431300
C  -0.2146567200  -0.6813452500  -3.7098769800
C  0.8657177700  -1.4957295100  -3.2107951400
C  -1.8167922400  -1.9093489400  -2.3036639700
C  0.5713118400  -2.6569709000  -2.5394190900
C  -0.8411786600  -2.9892688300  -2.2439958700
C  2.2041350700  -2.1112841600  -0.7320895600
C  2.2041350700  -2.1112841600  0.7320895600
C  1.3794664000  -3.0781862300  -1.4171779100
C  0.5713118400  -2.6569709000  2.5394190900
C  -0.8411786600  -2.9892688300  2.2439958700
C  1.3794664000  -3.0781862300  1.4171779100
C  -1.6633578300  -3.6523110800  0.0000000000
C  -0.8360714600  -3.8621844900  -1.1555905900
C  0.5674985400  -3.9920460000  -0.6872184500
C  -0.8360714600  -3.8621844900  1.1555905900
C  0.5674985400  -3.9920460000  0.6872184500