60
charge=0, multiplicity=1, basis=def2-TZVPD, mem_total=240000, AUX_BASIS_CORR=rimp2-def2-QZVPPD, SCF_ALGORITHM=GDM, xc_grid=000099000590, num_basis=2220, num_pairs=1980866, num_threads=64
C  -0.1254005100  4.2888636200  0.3970103300
C  -1.3979516100  3.9937869000  -0.1005381100
C  -1.2516821900  3.5749182700  -1.4933351100
C  0.8452725600  4.0508113100  -0.6758665500
C  0.1479565100  3.5187309700  -1.8150821400
C  1.9456564500  3.3656000500  -0.1199176100
C  0.3601887300  3.6689392800  1.5995347200
C  1.7037863300  3.1726126400  1.3190128000
C  -0.5222950400  2.8565337200  2.3391915800
C  -2.2472114700  3.0461313300  0.5621662400
C  -1.8448401400  2.5447798900  1.8084855400
C  -2.0908052600  2.4616395900  -1.7111877300
C  -2.7402334100  2.1019875600  -0.4475964300
C  -1.6545272200  1.4336437100  -2.5617324900
C  0.6667681500  2.3399052800  -2.4859801900
C  -0.2721489200  1.3765355000  -2.9701390200
C  2.5559945900  2.3216301700  -0.8578702600
C  1.9436508500  1.8256517400  -2.0557772500
C  3.1496870400  1.1881927900  -0.1809042100
C  2.1586519600  2.0052743500  1.9273676500
C  2.9494688200  1.0299960800  1.1871585900
C  -0.0353164000  1.6406823200  2.9640048200
C  1.2965342000  1.2472679900  2.8072157100
C  -2.1522948600  1.1749277900  2.1387474600
C  -1.0700966800  0.6292532500  2.9106135200
C  -3.0433315300  0.7592944600  -0.1478181100
C  -2.8677056200  0.3258113200  1.2450338900
C  -2.1142690600  0.1007517100  -2.3611427800
C  -2.8618286200  -0.2514954200  -1.2137833900
C  0.0677300100  -0.0238955000  -3.1273272400
C  -1.0830409800  -0.8143338600  -2.8492150100
C  2.2802234700  0.4188428300  -2.1835741600
C  3.0486126300  0.0243612000  -1.0396558800
C  1.3784876000  -0.5128198400  -2.7825780100
C  2.9970233300  -1.3014125000  -0.5249750400
C  2.6787195000  -0.2935216200  1.7126517300
C  1.6244718200  -0.1597986100  2.6766004000
C  2.8124159100  -1.4692947100  0.9241537700
C  -0.7722496600  -0.7673954600  2.9084509200
C  0.6405747500  -1.1839327900  2.8304343100
C  -2.7858930100  -1.0592327800  1.5211908100
C  -1.7712867300  -1.6174939200  2.3763441800
C  -2.8654167200  -1.6421934200  -0.8683102700
C  -2.9998466300  -2.0116803500  0.4717690400
C  -0.9930790700  -2.1729579600  -2.4200242800
C  -1.9702510500  -2.6385860000  -1.5029162100
C  1.5076534100  -1.8693929400  -2.4278677800
C  2.4151875800  -2.2838535700  -1.3919973000
C  0.3299917200  -2.7668392100  -2.3757807800
C  1.9059966400  -3.5120851600  -0.8629804700
C  0.6080311500  -3.8173368900  -1.4961652100
C  2.0975739600  -2.6158647000  1.4035350100
C  0.9685354700  -2.4481702800  2.2850054700
C  1.7630646300  -3.6800206800  0.5036050400
C  -1.4295320100  -2.9545170200  1.8619242400
C  -2.2172817700  -3.2126137400  0.7180232500
C  -1.6376466200  -3.6589072800  -0.5160663400
C  -0.3352536300  -4.2048443200  -0.4755122400
C  -0.0847682100  -3.3975159600  1.8696109400
C  0.3895747300  -4.1453511100  0.7747757600