4
charge=0, multiplicity=1, basis=def2-QZVPPD, AUX_BASIS_CORR=rimp2-def2-QZVPPD, SCF_ALGORITHM=GDM, xc_grid=000099000590, mem_total=3750, num_basis=162, num_pairs=13492, num_threads=1
N  -1.7226509000  0.0079730000  -0.1514112000
H  -0.7078158000  0.0066364000  -0.1593021000
H  -2.0107476000  0.9754270000  -0.1131419000
H  -2.0042487000  -0.4038018000  0.7273174000