3
charge=0, multiplicity=1, basis=def2-QZVPPD, AUX_BASIS_CORR=rimp2-def2-QZVPPD, SCF_ALGORITHM=GDM, xc_grid=000099000590, mem_total=3750, num_basis=129, num_pairs=8621, num_threads=1
C  0.0000000000  0.0000000000  -0.4420392000
H  0.8765006000  0.0000000000  0.2210196000
H  -0.8765006000  0.0000000000  0.2210196000