6
charge=0, multiplicity=1, basis=def2-QZVPPD, AUX_BASIS_CORR=rimp2-def2-QZVPPD, SCF_ALGORITHM=GDM, xc_grid=000099000590, mem_total=3750, num_basis=304, num_pairs=46116, num_threads=1
C  -0.7812762000  0.1517281000  -0.7419824000
Cl  0.1322569000  -0.0037532000  -2.1651677000
C  0.0535089000  0.0161273000  0.4601907000
H  1.1401585000  0.0053175000  0.3540221000
H  -0.2671755000  0.7649204000  1.1894818000
H  -0.2774726000  -0.9343402000  0.9034555000