15
charge=0, multiplicity=1, basis=def2-QZVPPD, AUX_BASIS_CORR=rimp2-def2-QZVPPD, SCF_ALGORITHM=GDM, xc_grid=000099000590, mem_total=7500, num_basis=705, num_pairs=222615, num_threads=2
C  0.0000000000  0.0000000000  -0.9584282000
C  0.0000000000  0.6736464000  1.2112590000
C  0.0000000000  -0.6736464000  1.2112590000
N  0.0000000000  -1.0537038000  -0.1132391000
N  0.0000000000  1.0537038000  -0.1132391000
H  0.0000000000  1.3723205000  2.0327101000
H  0.0000000000  -1.3723205000  2.0327101000
C  0.0000000000  -2.4211809000  -0.5661872000
C  0.0000000000  2.4211809000  -0.5661872000
H  0.8869830000  -2.9521266000  -0.2163042000
H  -0.8869830000  -2.9521266000  -0.2163042000
H  0.0000000000  -2.4135116000  -1.6527202000
H  -0.8869830000  2.9521266000  -0.2163042000
H  0.8869830000  2.9521266000  -0.2163042000
H  0.0000000000  2.4135116000  -1.6527202000