19
charge=0, multiplicity=1, basis=def2-QZVPPD, mem_total=15000, AUX_BASIS_CORR=rimp2-def2-QZVPPD, SCF_ALGORITHM=GDM, xc_grid=000099000590, num_basis=867, num_pairs=309270, num_threads=4
C  -0.0011216000  -0.2460043000  -0.1225116000
C  0.1028776000  0.5543428000  2.0013749000
C  0.1046197000  -0.7905588000  2.0798817000
N  0.0411420000  -1.2477681000  0.7819687000
N  0.0378934000  0.8560167000  0.6588297000
H  0.1415192000  1.3000247000  2.7794983000
H  0.1446205000  -1.4402343000  2.9396588000
C  0.0208164000  -2.6394750000  0.4105055000
C  0.0193626000  2.1944819000  0.1260583000
H  0.9230638000  -3.1511808000  0.7484689000
H  -0.8476599000  -3.1477491000  0.8318286000
H  -0.0303493000  -2.6955885000  -0.6733973000
H  -0.8350963000  2.7575329000  0.5043909000
H  0.9327725000  2.7341106000  0.3806608000
H  -0.0574038000  2.1232407000  -0.9565010000
N  -0.1874555000  0.5115308000  -3.3233251000
H  -0.1311741000  0.1073237000  -2.3900921000
H  -0.9992206000  1.1131127000  -3.3382134000
H  0.6207935000  1.1068414000  -3.4390845000