5
charge=0, multiplicity=1, basis=def2-QZVPPD, AUX_BASIS_CORR=rimp2-def2-QZVPPD, SCF_ALGORITHM=GDM, xc_grid=000099000590, mem_total=3750, num_basis=254, num_pairs=29064, num_threads=1
Cl  0.0000000000  0.0000000000  -3.0615009000
H  0.0000000000  0.0000000000  -1.7689806000
Si  0.0000000000  0.0000000000  0.9256255000
H  1.0947042000  0.0000000000  1.9524281000
H  -1.0947042000  0.0000000000  1.9524281000