3
charge=0, multiplicity=1, basis=def2-QZVPPD, AUX_BASIS_CORR=rimp2-def2-QZVPPD, SCF_ALGORITHM=GDM, xc_grid=000099000590, mem_total=3750, num_basis=142, num_pairs=10405, num_threads=1
Si  0.0000000000  0.0000000000  -0.6948427000
H  1.0869224000  0.0000000000  0.3474213000
H  -1.0869224000  0.0000000000  0.3474213000