4
charge=0, multiplicity=1, basis=def2-QZVPPD, AUX_BASIS_CORR=rimp2-def2-QZVPPD, SCF_ALGORITHM=GDM, xc_grid=000099000590, mem_total=3750, num_basis=162, num_pairs=13492, num_threads=1
N  0.0000000000  0.0000000000  -0.2853278000
H  -0.4684205000  0.8113281000  0.0951093000
H  -0.4684205000  -0.8113281000  0.0951093000
H  0.9368410000  0.0000000000  0.0951093000