15
charge=0, multiplicity=1, basis=def2-QZVPPD, AUX_BASIS_CORR=rimp2-def2-QZVPPD, SCF_ALGORITHM=GDM, xc_grid=000099000590, mem_total=7500, num_basis=705, num_pairs=222423, num_threads=2
C  -0.0475043000  0.9518242000  0.0000000000
C  0.0553300000  -1.2085107000  0.6721468000
C  0.0553300000  -1.2085107000  -0.6721468000
N  -0.0068292000  0.1134193000  -1.0558935000
N  -0.0068292000  0.1134193000  1.0558935000
H  0.0964756000  -2.0286085000  1.3710413000
H  0.0964756000  -2.0286085000  -1.3710413000
C  -0.0268963000  0.5655123000  -2.4237681000
C  -0.0268963000  0.5655123000  2.4237681000
H  0.8604394000  0.2291423000  -2.9613472000
H  -0.9121045000  0.2011767000  -2.9468824000
H  -0.0426629000  1.6519566000  -2.4198035000
H  -0.9121045000  0.2011767000  2.9468824000
H  0.8604394000  0.2291423000  2.9613472000
H  -0.0426629000  1.6519566000  2.4198035000