7
charge=0, multiplicity=1, basis=def2-QZVPPD, AUX_BASIS_CORR=rimp2-def2-QZVPPD, SCF_ALGORITHM=GDM, xc_grid=000099000590, mem_total=3750, num_basis=304, num_pairs=39774, num_threads=1
N  -2.0218160000  0.0384296000  -0.1370857000
H  -1.0569167000  0.3421306000  -0.1534744000
H  -2.5889661000  0.8736855000  -0.1772062000
H  -2.1799400000  -0.3748521000  0.7710586000
Si  1.9938584000  0.0138474000  -0.0502141000
H  2.8743270000  -0.3713375000  -1.2095769000
H  2.9794534000  -0.5219035000  0.9564988000