4
charge=1, multiplicity=1, basis=def2-QZVPPD, AUX_BASIS_CORR=rimp2-def2-QZVPPD, SCF_ALGORITHM=GDM, xc_grid=000099000590, mem_total=3750, num_basis=167, num_pairs=14314, num_threads=1
Li  -0.4090149000  -1.9140381600  0.0812915200
O  0.3902509900  -0.2364965300  -0.0217673000
H  1.3319618000  -0.0379078700  -0.0950983100
H  -0.0470894000  0.6239083400  -0.0134802500