6
charge=1, multiplicity=2, basis=def2-QZVPPD, mem_total=3750, AUX_BASIS_CORR=rimp2-def2-QZVPPD, SCF_ALGORITHM=GDM, xc_grid=000099000590, num_basis=528, num_pairs=133257, num_threads=1
Ag  0.0000000000  0.0000000000  1.9838710000
Ag  1.9838710000  0.0000000000  0.0000000000
Ag  -1.9838710000  0.0000000000  0.0000000000
Ag  0.0000000000  0.0000000000  -1.9838710000
Ag  0.0000000000  -1.9838710000  0.0000000000
Ag  0.0000000000  1.9838710000  0.0000000000