3
charge=1, multiplicity=1, basis=def2-QZVPPD, AUX_BASIS_CORR=rimp2-def2-QZVPPD, SCF_ALGORITHM=GDM, xc_grid=000099000590, mem_total=3750, num_basis=264, num_pairs=35529, num_threads=1
Au  0.0000000000  1.5014000000  0.0000000000
Au  1.3002510000  -0.7507000000  0.0000000000
Au  -1.3002510000  -0.7507000000  0.0000000000