6
charge=1, multiplicity=2, basis=def2-QZVPPD, AUX_BASIS_CORR=rimp2-def2-QZVPPD, SCF_ALGORITHM=GDM, xc_grid=000099000590, mem_total=3750, num_basis=528, num_pairs=137325, num_threads=1
Au  0.0000000000  0.0000000000  1.9553850000
Au  1.9553850000  0.0000000000  0.0000000000
Au  -1.9553850000  0.0000000000  0.0000000000
Au  0.0000000000  0.0000000000  -1.9553850000
Au  0.0000000000  -1.9553850000  0.0000000000
Au  0.0000000000  1.9553850000  0.0000000000