5
charge=2, multiplicity=1, basis=def2-QZVPPD, AUX_BASIS_CORR=rimp2-def2-QZVPPD, SCF_ALGORITHM=GDM, xc_grid=000099000590, mem_total=3750, num_basis=466, num_pairs=99770, num_threads=1
Cu  0.0000000000  1.3025390000  -0.8134660000
Cu  0.0000000000  -1.3025390000  -0.8134660000
Cu  1.8557450000  0.0000000000  0.7437240000
Cu  -1.8557450000  0.0000000000  0.7437240000
O  0.0000000000  0.0000000000  0.5056280000