5
charge=2, multiplicity=2, basis=def2-QZVPPD, AUX_BASIS_CORR=rimp2-def2-QZVPPD, SCF_ALGORITHM=GDM, xc_grid=000099000590, mem_total=3750, num_basis=385, num_pairs=72748, num_threads=1
Au  0.0000000000  0.0000000000  1.7507140000
Au  0.0000000000  1.5499730000  -0.5976140000
Au  1.3423160000  -0.7749860000  -0.5976140000
Au  -1.3423160000  -0.7749860000  -0.5976140000
H  0.0000000000  0.0000000000  3.3281410000