4
charge=2, multiplicity=1, basis=def2-QZVPPD, AUX_BASIS_CORR=rimp2-def2-QZVPPD, SCF_ALGORITHM=GDM, xc_grid=000099000590, mem_total=3750, num_basis=352, num_pairs=62516, num_threads=1
Au  0.0000000000  -0.0000440000  1.6594200000
Au  -1.3549660000  0.7822920000  -0.5531610000
Au  1.3549660000  0.7822920000  -0.5531610000
Au  0.0000000000  -1.5645400000  -0.5530990000