7
charge=2, multiplicity=2, basis=def2-QZVPPD, AUX_BASIS_CORR=rimp2-def2-QZVPPD, SCF_ALGORITHM=GDM, xc_grid=000099000590, mem_total=3750, num_basis=633, num_pairs=181964, num_threads=1
Cu  0.0000000000  1.4166600000  0.9908200000
Cu  1.2268640000  -0.7083300000  0.9908200000
Cu  -1.2277870000  0.7088630000  -1.0143420000
Cu  0.0000000000  -1.4177260000  -1.0143420000
Cu  -1.2268640000  -0.7083300000  0.9908200000
Cu  1.2277870000  0.7088630000  -1.0143420000
H  0.0000000000  0.0000000000  2.0463700000