3
charge=0, multiplicity=2, basis=def2-QZVPPD, AUX_BASIS_CORR=rimp2-def2-QZVPPD, SCF_ALGORITHM=GDM, xc_grid=000099000590, mem_total=3750, num_basis=264, num_pairs=32244, num_threads=1
Ag  0.0000000000  0.0000000000  0.0000000000
Ag  0.0000000000  0.0000000000  2.5925320000
Ag  0.0000000000  0.0000000000  -2.5925320000