6
charge=1, multiplicity=2, basis=def2-QZVPPD, AUX_BASIS_CORR=rimp2-def2-QZVPPD, SCF_ALGORITHM=GDM, xc_grid=000099000590, mem_total=3750, num_basis=528, num_pairs=135570, num_threads=1
Au  0.0000000000  0.0000000000  1.5328660000
Au  1.3275010000  0.0000000000  -0.7664330000
Au  -1.3275010000  0.0000000000  -0.7664330000
Au  0.0000000000  -2.8242470000  1.5328660000
Au  1.3275010000  -2.8242470000  -0.7664330000
Au  -1.3275010000  -2.8242470000  -0.7664330000