8
charge=2, multiplicity=1, basis=def2-QZVPPD, mem_total=7500, AUX_BASIS_CORR=rimp2-def2-QZVPPD, SCF_ALGORITHM=GDM, xc_grid=000250000974, num_basis=729, num_pairs=223167, num_threads=2
Cu  0.0000000000  1.7362770000  0.3165730000
Cu  1.7362770000  0.0000000000  0.3165730000
Cu  -1.7362770000  0.0000000000  0.3165730000
Cu  0.0000000000  -1.7362770000  0.3165730000
Cu  0.0000000000  0.0000000000  -1.4197040000
Cu  0.0000000000  0.0000000000  2.0528500000
C  0.0000000000  0.0000000000  -3.2906570000
O  0.0000000000  0.0000000000  -4.4174700000