6
charge=2, multiplicity=1, basis=def2-QZVPPD, AUX_BASIS_CORR=rimp2-def2-QZVPPD, SCF_ALGORITHM=GDM, xc_grid=000099000590, mem_total=3750, num_basis=473, num_pairs=105860, num_threads=1
Ag  0.0077280000  1.5843330000  0.0000000000
Ag  0.0077280000  -0.8029710000  1.3785930000
Ag  0.0077280000  -0.8029710000  -1.3785930000
Ag  -2.3949040000  -0.0060530000  0.0000000000
Ag  2.4111490000  -0.0078490000  0.0000000000
H  -1.8531140000  1.6690090000  0.0000000000