8
charge=2, multiplicity=1, basis=def2-QZVPPD, AUX_BASIS_CORR=rimp2-def2-QZVPPD, SCF_ALGORITHM=GDM, xc_grid=000099000590, mem_total=3750, num_basis=562, num_pairs=140083, num_threads=1
Cu  0.2538170000  1.3753810000  0.0000000000
Cu  0.2538170000  -0.6875980000  1.1910980000
Cu  0.2538170000  -0.6875980000  -1.1910980000
Cu  -1.7453520000  0.0001590000  0.0000000000
N  2.7259490000  -0.0009590000  0.0000000000
H  3.1502170000  -0.9368780000  0.0000000000
H  3.1506370000  0.4668060000  -0.8104190000
H  3.1506370000  0.4668060000  0.8104190000