6
charge=2, multiplicity=1, basis=def2-QZVPPD, AUX_BASIS_CORR=rimp2-def2-QZVPPD, SCF_ALGORITHM=GDM, xc_grid=000099000590, mem_total=3750, num_basis=529, num_pairs=121417, num_threads=1
Cu  0.0000000000  1.3915710000  -0.0725330000
Cu  1.2051350000  -0.6957850000  -0.0725330000
Cu  -1.2051350000  -0.6957850000  -0.0725330000
Cu  0.0000000000  0.0000000000  1.9161650000
C  0.0000000000  0.0000000000  -2.8746860000
O  0.0000000000  0.0000000000  -4.0012900000