6
charge=1, multiplicity=2, basis=def2-QZVPPD, AUX_BASIS_CORR=rimp2-def2-QZVPPD, SCF_ALGORITHM=GDM, xc_grid=000099000590, mem_total=3750, num_basis=600, num_pairs=164685, num_threads=1
Cu  0.0000000000  0.0000000000  1.7104250000
Cu  1.7104250000  0.0000000000  0.0000000000
Cu  -1.7104250000  0.0000000000  0.0000000000
Cu  0.0000000000  0.0000000000  -1.7104250000
Cu  0.0000000000  -1.7104250000  0.0000000000
Cu  0.0000000000  1.7104250000  0.0000000000