7
charge=2, multiplicity=1, basis=def2-QZVPPD, AUX_BASIS_CORR=rimp2-def2-QZVPPD, SCF_ALGORITHM=GDM, xc_grid=000099000590, mem_total=7500, num_basis=666, num_pairs=200422, num_threads=2
Cu  0.0000000000  1.4138680000  0.9077170000
Cu  -1.2244460000  -0.7069340000  0.9077170000
Cu  1.2282300000  0.7091190000  -1.0981780000
Cu  0.0000000000  -1.4182380000  -1.0981780000
Cu  1.2244460000  -0.7069340000  0.9077170000
Cu  -1.2282300000  0.7091190000  -1.0981780000
O  0.0000000000  0.0000000000  2.0712620000