5
charge=2, multiplicity=2, basis=def2-QZVPPD, AUX_BASIS_CORR=rimp2-def2-QZVPPD, SCF_ALGORITHM=GDM, xc_grid=000099000590, mem_total=3750, num_basis=500, num_pairs=114792, num_threads=1
Cu  0.0000000000  0.0000000000  1.7250810000
Cu  1.7250810000  0.0000000000  0.0000000000
Cu  -1.7250810000  0.0000000000  0.0000000000
Cu  0.0000000000  0.0000000000  -1.7250810000
Cu  0.0000000000  -1.7050220000  0.0000000000