4
charge=2, multiplicity=1, basis=def2-QZVPPD, AUX_BASIS_CORR=rimp2-def2-QZVPPD, SCF_ALGORITHM=GDM, xc_grid=000099000590, mem_total=3750, num_basis=400, num_pairs=76182, num_threads=1
Cu  -0.0000010000  -0.0000070000  1.4886300000
Cu  0.0000010000  -1.4034490000  -0.4962030000
Cu  1.2154850000  0.7017270000  -0.4962140000
Cu  -1.2154850000  0.7017290000  -0.4962130000