6
charge=2, multiplicity=1, basis=def2-QZVPPD, AUX_BASIS_CORR=rimp2-def2-QZVPPD, SCF_ALGORITHM=GDM, xc_grid=000099000590, mem_total=3750, num_basis=481, num_pairs=104822, num_threads=1
Au  0.0000000000  1.3179430000  0.8207940000
Au  0.0000000000  -1.3179430000  0.8207940000
Au  -1.3314960000  0.0000000000  -1.1798020000
Au  1.3314960000  0.0000000000  -1.1798020000
C  0.0000000000  0.0000000000  3.4081880000
O  0.0000000000  0.0000000000  4.5342660000