6
charge=2, multiplicity=1, basis=def2-QZVPPD, AUX_BASIS_CORR=rimp2-def2-QZVPPD, SCF_ALGORITHM=GDM, xc_grid=000099000590, mem_total=3750, num_basis=481, num_pairs=103546, num_threads=1
Au  0.0000000000  0.0000000000  1.5551390000
Au  0.0000000000  1.5360100000  -0.7658240000
Au  1.3302240000  -0.7680050000  -0.7658240000
Au  -1.3302240000  -0.7680050000  -0.7658240000
C  0.0000000000  0.0000000000  3.5462190000
O  0.0000000000  0.0000000000  4.6708620000