5
charge=2, multiplicity=2, basis=def2-QZVPPD, AUX_BASIS_CORR=rimp2-def2-QZVPPD, SCF_ALGORITHM=GDM, xc_grid=000099000590, mem_total=3750, num_basis=440, num_pairs=95889, num_threads=1
Au  0.0000000000  1.9206840000  -0.3909060000
Au  1.9206840000  0.0000000000  -0.3909060000
Au  -1.9206840000  0.0000000000  -0.3909060000
Au  0.0000000000  -1.9206840000  -0.3909060000
Au  0.0000000000  0.0000000000  1.5636260000