5
charge=1, multiplicity=1, basis=def2-QZVPPD, AUX_BASIS_CORR=rimp2-def2-QZVPPD, SCF_ALGORITHM=GDM, xc_grid=000099000590, mem_total=3750, num_basis=500, num_pairs=115831, num_threads=1
Cu  0.0000000000  1.3507620000  0.0000000000
Cu  1.1697940000  -0.6753810000  0.0000000000
Cu  -1.1697940000  -0.6753810000  0.0000000000
Cu  0.0000000000  0.0000000000  2.0385540000
Cu  0.0000000000  0.0000000000  -2.0385540000