7
charge=2, multiplicity=2, basis=def2-QZVPPD, AUX_BASIS_CORR=rimp2-def2-QZVPPD, SCF_ALGORITHM=GDM, xc_grid=000099000590, mem_total=3750, num_basis=569, num_pairs=144963, num_threads=1
Au  0.0000000000  1.3710570000  -0.9361800000
Au  0.0000000000  0.0000000000  1.4385600000
Au  0.0000000000  -1.3710570000  -0.9361800000
Au  2.2488680000  0.0000000000  -0.1444170000
Au  -2.2488680000  0.0000000000  -0.1444170000
C  0.0000000000  0.0000000000  3.4341850000
O  0.0000000000  0.0000000000  4.5603900000