6
charge=2, multiplicity=1, basis=def2-QZVPPD, AUX_BASIS_CORR=rimp2-def2-QZVPPD, SCF_ALGORITHM=GDM, xc_grid=000250000974, mem_total=3750, num_basis=528, num_pairs=132909, num_threads=1
Ag  0.0000000000  0.0000000000  2.0072700000
Ag  2.0072700000  0.0000000000  0.0000000000
Ag  -2.0072700000  0.0000000000  0.0000000000
Ag  0.0000000000  0.0000000000  -2.0072700000
Ag  0.0000000000  -2.0072700000  0.0000000000
Ag  0.0000000000  2.0072700000  0.0000000000