5
charge=2, multiplicity=2, basis=def2-QZVPPD, AUX_BASIS_CORR=rimp2-def2-QZVPPD, SCF_ALGORITHM=GDM, xc_grid=000099000590, mem_total=3750, num_basis=433, num_pairs=86726, num_threads=1
Cu  0.0000000000  1.4018700000  -0.5450620000
Cu  1.2140550000  -0.7009350000  -0.5450620000
Cu  -1.2140550000  -0.7009350000  -0.5450620000
Cu  0.0000000000  0.0000000000  1.5300060000
H  0.0000000000  0.0000000000  3.0501920000