5
charge=2, multiplicity=1, basis=def2-QZVPPD, AUX_BASIS_CORR=rimp2-def2-QZVPPD, SCF_ALGORITHM=GDM, xc_grid=000250000974, mem_total=3750, num_basis=418, num_pairs=84790, num_threads=1
Ag  0.0000000000  1.4002130000  0.8948190000
Ag  0.0000000000  -1.4002130000  0.8948190000
Ag  -1.4008310000  -0.0001070000  -1.0862140000
Ag  1.4008310000  0.0001070000  -1.0862140000
O  0.0000000000  0.0000000000  2.2488960000