6
charge=2, multiplicity=1, basis=def2-QZVPPD, AUX_BASIS_CORR=rimp2-def2-QZVPPD, SCF_ALGORITHM=GDM, xc_grid=000099000590, mem_total=3750, num_basis=481, num_pairs=104356, num_threads=1
Au  0.0000000000  1.5579650000  -0.3742770000
Au  1.3492380000  -0.7789830000  -0.3742770000
Au  -1.3492380000  -0.7789830000  -0.3742770000
Au  0.0000000000  0.0000000000  1.8472260000
C  0.0000000000  0.0000000000  -3.4431990000
O  0.0000000000  0.0000000000  -4.5709960000