5
charge=2, multiplicity=2, basis=def2-QZVPPD, AUX_BASIS_CORR=rimp2-def2-QZVPPD, SCF_ALGORITHM=GDM, xc_grid=000099000590, mem_total=3750, num_basis=433, num_pairs=89137, num_threads=1
Cu  0.0000000000  1.3877300000  -0.5075330000
Cu  1.2018090000  -0.6938650000  -0.5075330000
Cu  -1.2018090000  -0.6938650000  -0.5075330000
Cu  0.0000000000  0.0000000000  1.5766400000
H  0.0000000000  0.0000000000  -1.5671850000