10
charge=2, multiplicity=1, basis=def2-QZVPPD, AUX_BASIS_CORR=rimp2-def2-QZVPPD, SCF_ALGORITHM=GDM, xc_grid=000099000590, mem_total=7500, num_basis=690, num_pairs=199514, num_threads=2
Ag  -0.3307510000  -1.9375360000  -0.4329380000
Ag  -1.9758430000  0.3571440000  -0.1390310000
Ag  1.9819530000  -0.3152940000  -0.1536670000
Ag  0.3368610000  1.9793870000  0.1402410000
Ag  0.0439190000  0.3046800000  -2.1330410000
Ag  -0.0378080000  -0.2628310000  1.8403430000
N  -0.0837250000  -0.5733300000  4.0104450000
H  0.7672160000  -1.0227500000  4.3606840000
H  -0.1793250000  0.3033830000  4.5309190000
H  -0.8633340000  -1.1681700000  4.3055790000