5
charge=1, multiplicity=1, basis=def2-QZVPPD, AUX_BASIS_CORR=rimp2-def2-QZVPPD, SCF_ALGORITHM=GDM, xc_grid=000250000974, mem_total=3750, num_basis=500, num_pairs=115236, num_threads=1
Cu  0.0000000000  0.0000000000  1.7083060000
Cu  1.7083060000  0.0000000000  0.0000000000
Cu  -1.7083060000  0.0000000000  0.0000000000
Cu  0.0000000000  0.0000000000  -1.7083060000
Cu  0.0000000000  -1.6513440000  0.0000000000