6
charge=2, multiplicity=2, basis=def2-QZVPPD, AUX_BASIS_CORR=rimp2-def2-QZVPPD, SCF_ALGORITHM=GDM, xc_grid=000099000590, mem_total=3750, num_basis=566, num_pairs=147019, num_threads=1
Cu  0.0578400000  -0.6149260000  1.1988610000
Cu  0.0578400000  -0.6149260000  -1.1988610000
Cu  0.0578400000  1.4687390000  0.0000000000
Cu  -1.9927460000  0.0791040000  0.0000000000
Cu  2.1098310000  0.0812220000  0.0000000000
O  -1.0534370000  -1.4471480000  0.0000000000