5
charge=0, multiplicity=2, basis=def2-QZVPPD, AUX_BASIS_CORR=rimp2-def2-QZVPPD, SCF_ALGORITHM=GDM, xc_grid=000099000590, mem_total=3750, num_basis=500, num_pairs=115400, num_threads=1
Cu  0.0000000000  0.0000000000  1.7090390000
Cu  1.7090390000  0.0000000000  0.0000000000
Cu  -1.7090390000  0.0000000000  0.0000000000
Cu  0.0000000000  0.0000000000  -1.7090390000
Cu  0.0000000000  -1.6146210000  0.0000000000