6
charge=2, multiplicity=1, basis=def2-QZVPPD, AUX_BASIS_CORR=rimp2-def2-QZVPPD, SCF_ALGORITHM=GDM, xc_grid=000099000590, mem_total=3750, num_basis=481, num_pairs=102337, num_threads=1
Ag  0.0000000000  1.6093040000  -0.2742630000
Ag  1.3936980000  -0.8046520000  -0.2742630000
Ag  -1.3936980000  -0.8046520000  -0.2742630000
Ag  0.0000000000  0.0000000000  2.0129230000
C  0.0000000000  0.0000000000  -3.3509700000
O  0.0000000000  0.0000000000  -4.4788160000