10
charge=2, multiplicity=1, basis=def2-QZVPPD, mem_total=7500, AUX_BASIS_CORR=rimp2-def2-QZVPPD, SCF_ALGORITHM=GDM, xc_grid=000250000974, num_basis=762, num_pairs=240762, num_threads=2
Cu  0.2055400000  -1.3590950000  1.0805120000
Cu  0.2056300000  1.0805170000  1.3590920000
Cu  0.2067460000  -1.0805160000  -1.3591000000
Cu  0.2068370000  1.3590970000  -1.0805210000
Cu  -1.5300890000  0.0001620000  -0.0008450000
Cu  1.9424650000  -0.0001600000  0.0008360000
N  -3.4685310000  0.0002270000  -0.0007690000
H  -3.8678790000  0.8684780000  -0.3744860000
H  -3.8670710000  -0.7619840000  -0.5605170000
H  -3.8620750000  -0.1082390000  0.9410920000