6
charge=0, multiplicity=1, basis=def2-QZVPPD, AUX_BASIS_CORR=rimp2-def2-QZVPPD, SCF_ALGORITHM=GDM, xc_grid=000250000974, mem_total=3750, num_basis=528, num_pairs=135648, num_threads=1
Au  0.0000000000  0.0000000000  1.5513610000
Au  1.3435180000  0.0000000000  -0.7756810000
Au  -1.3435180000  0.0000000000  -0.7756810000
Au  0.0000000000  -2.7414180000  1.5513610000
Au  1.3435180000  -2.7414180000  -0.7756810000
Au  -1.3435180000  -2.7414180000  -0.7756810000