6
charge=2, multiplicity=1, basis=def2-QZVPPD, AUX_BASIS_CORR=rimp2-def2-QZVPPD, SCF_ALGORITHM=GDM, xc_grid=000099000590, mem_total=3750, num_basis=528, num_pairs=135360, num_threads=1
Au  0.0000000000  0.0000000000  1.5169970000
Au  1.3137580000  0.0000000000  -0.7584990000
Au  -1.3137580000  0.0000000000  -0.7584990000
Au  0.0000000000  -3.0837450000  1.5169970000
Au  1.3137580000  -3.0837450000  -0.7584990000
Au  -1.3137580000  -3.0837450000  -0.7584990000