9
charge=2, multiplicity=2, basis=def2-QZVPPD, AUX_BASIS_CORR=rimp2-def2-QZVPPD, SCF_ALGORITHM=GDM, xc_grid=000099000590, mem_total=3750, num_basis=602, num_pairs=153131, num_threads=1
Ag  -1.3785310000  -0.9559540000  0.0000000000
Ag  -0.0000620000  1.4316260000  0.0000000000
Ag  1.3784080000  -0.9559520000  0.0000000000
Ag  -0.0000620000  -0.1600940000  2.4032510000
Ag  -0.0000620000  -0.1600940000  -2.4032510000
N  0.0008290000  3.6424700000  0.0000000000
H  0.9463750000  4.0366310000  0.0000000000
H  -0.4688590000  4.0440290000  -0.8167160000
H  -0.4688590000  4.0440290000  0.8167160000