6
charge=2, multiplicity=1, basis=def2-QZVPPD, AUX_BASIS_CORR=rimp2-def2-QZVPPD, SCF_ALGORITHM=GDM, xc_grid=000099000590, mem_total=3750, num_basis=529, num_pairs=120114, num_threads=1
Cu  0.0000000000  1.3805210000  -0.9550670000
Cu  1.1955660000  -0.6902600000  -0.9550670000
Cu  -1.1955660000  -0.6902600000  -0.9550670000
Cu  0.0000000000  0.0000000000  1.0997620000
C  0.0000000000  0.0000000000  3.0146860000
O  0.0000000000  0.0000000000  4.1387010000