6
charge=2, multiplicity=1, basis=def2-QZVPPD, AUX_BASIS_CORR=rimp2-def2-QZVPPD, SCF_ALGORITHM=GDM, xc_grid=000099000590, mem_total=3750, num_basis=473, num_pairs=108969, num_threads=1
Au  0.0046190000  1.5789060000  0.0000000000
Au  0.0046190000  -0.7957000000  1.3710430000
Au  0.0046190000  -0.7957000000  -1.3710430000
Au  -2.2441860000  -0.0042300000  0.0000000000
Au  2.2535490000  -0.0041810000  0.0000000000
H  -1.8344970000  1.6514960000  0.0000000000