7
charge=2, multiplicity=2, basis=def2-QZVPPD, AUX_BASIS_CORR=rimp2-def2-QZVPPD, SCF_ALGORITHM=GDM, xc_grid=000099000590, mem_total=3750, num_basis=561, num_pairs=148886, num_threads=1
Ag  0.0000000000  1.6537450000  1.1287100000
Ag  1.4321850000  -0.8268730000  1.1287100000
Ag  -1.4324240000  0.8270100000  -1.1447120000
Ag  0.0000000000  -1.6540210000  -1.1447120000
Ag  -1.4321850000  -0.8268730000  1.1287100000
Ag  1.4324240000  0.8270100000  -1.1447120000
H  0.0000000000  0.0000000000  2.2562190000