6
charge=2, multiplicity=1, basis=def2-QZVPPD, AUX_BASIS_CORR=rimp2-def2-QZVPPD, SCF_ALGORITHM=GDM, xc_grid=000250000974, mem_total=3750, num_basis=528, num_pairs=129411, num_threads=1
Ag  0.0000000000  0.0000000000  1.6540260000
Ag  1.4324280000  0.0000000000  -0.8270130000
Ag  -1.4324280000  0.0000000000  -0.8270130000
Ag  0.0000000000  -2.6158950000  1.6540260000
Ag  1.4324280000  -2.6158950000  -0.8270130000
Ag  -1.4324280000  -2.6158950000  -0.8270130000