8
charge=2, multiplicity=1, basis=def2-QZVPPD, AUX_BASIS_CORR=rimp2-def2-QZVPPD, SCF_ALGORITHM=GDM, xc_grid=000099000590, mem_total=3750, num_basis=514, num_pairs=123175, num_threads=1
Au  0.0000000000  1.5482810000  -0.4532460000
Au  1.3408510000  -0.7741410000  -0.4532460000
Au  -1.3408510000  -0.7741410000  -0.4532460000
Au  0.0000000000  0.0000000000  1.7836640000
N  0.0000000000  0.0000000000  -3.2260550000
H  -0.8138910000  0.4699000000  -3.6359560000
H  0.8138910000  0.4699000000  -3.6359560000
H  0.0000000000  -0.9398000000  -3.6359560000