3
charge=0, multiplicity=2, basis=def2-QZVPPD, AUX_BASIS_CORR=rimp2-def2-QZVPPD, SCF_ALGORITHM=GDM, xc_grid=000099000590, mem_total=3750, num_basis=300, num_pairs=43623, num_threads=1
Cu  0.0000000000  1.3468280000  0.0000000000
Cu  1.1663870000  -0.6734140000  0.0000000000
Cu  -1.1663870000  -0.6734140000  0.0000000000