5
charge=2, multiplicity=2, basis=def2-QZVPPD, AUX_BASIS_CORR=rimp2-def2-QZVPPD, SCF_ALGORITHM=GDM, xc_grid=000099000590, mem_total=3750, num_basis=385, num_pairs=72898, num_threads=1
Ag  0.0000000000  1.6044050000  -0.6117760000
Ag  1.3894560000  -0.8022030000  -0.6117760000
Ag  -1.3894560000  -0.8022030000  -0.6117760000
Ag  0.0000000000  0.0000000000  1.8718240000
H  0.0000000000  0.0000000000  -1.7153730000