4
charge=0, multiplicity=1, basis=def2-QZVPPD, AUX_BASIS_CORR=rimp2-def2-QZVPPD, SCF_ALGORITHM=GDM, xc_grid=000099000590, mem_total=3750, num_basis=352, num_pairs=60657, num_threads=1
Au  -0.7886610000  -0.0166840000  2.2095260000
Au  -1.2233320000  -0.0114670000  -0.4367400000
Au  0.7883850000  0.0165790000  -2.2095640000
Au  1.2236080000  0.0115720000  0.4367780000