4
charge=0, multiplicity=1, basis=def2-QZVPPD, AUX_BASIS_CORR=rimp2-def2-QZVPPD, SCF_ALGORITHM=GDM, xc_grid=000099000590, mem_total=3750, num_basis=400, num_pairs=73737, num_threads=1
Cu  -0.3878760000  -0.0852560000  2.0524050000
Cu  1.1100290000  0.0968580000  0.2141110000
Cu  0.3868590000  0.0852170000  -2.0524430000
Cu  -1.1090110000  -0.0968180000  -0.2140730000