5
charge=1, multiplicity=1, basis=def2-QZVPPD, AUX_BASIS_CORR=rimp2-def2-QZVPPD, SCF_ALGORITHM=GDM, xc_grid=000250000974, mem_total=3750, num_basis=440, num_pairs=93053, num_threads=1
Ag  0.0000000000  1.9791690000  -0.3802120000
Ag  1.9791690000  0.0000000000  -0.3802120000
Ag  -1.9791690000  0.0000000000  -0.3802120000
Ag  0.0000000000  -1.9791690000  -0.3802120000
Ag  0.0000000000  0.0000000000  1.5208470000