6
charge=2, multiplicity=1, basis=def2-QZVPPD, AUX_BASIS_CORR=rimp2-def2-QZVPPD, SCF_ALGORITHM=GDM, xc_grid=000099000590, mem_total=3750, num_basis=481, num_pairs=101808, num_threads=1
Ag  0.0000000000  1.3636520000  0.7256430000
Ag  0.0000000000  -1.3636520000  0.7256430000
Ag  -1.3770110000  0.0000000000  -1.3221580000
Ag  1.3770110000  0.0000000000  -1.3221580000
C  0.0000000000  0.0000000000  3.3615570000
O  0.0000000000  0.0000000000  4.4878750000