8
charge=2, multiplicity=1, basis=def2-QZVPPD, AUX_BASIS_CORR=rimp2-def2-QZVPPD, SCF_ALGORITHM=GDM, xc_grid=000099000590, mem_total=3750, num_basis=514, num_pairs=120003, num_threads=1
Ag  0.0000000000  1.5933540000  -0.4039420000
Ag  1.3798850000  -0.7966770000  -0.4039420000
Ag  -1.3798850000  -0.7966770000  -0.4039420000
Ag  0.0000000000  0.0000000000  1.8949430000
N  0.0000000000  0.0000000000  -3.0826300000
H  0.8086490000  0.4668740000  -3.5093560000
H  0.0000000000  -0.9337480000  -3.5093560000
H  -0.8086490000  0.4668740000  -3.5093560000