5
charge=2, multiplicity=1, basis=def2-QZVPPD, mem_total=3750, AUX_BASIS_CORR=rimp2-def2-QZVPPD, SCF_ALGORITHM=GDM, xc_grid=000250000974, num_basis=466, num_pairs=98139, num_threads=1
Cu  -0.6991690000  1.4145500000  -0.0093930000
Cu  -0.7124730000  -0.7116120000  -1.1962470000
Cu  -0.7138040000  -0.6954210000  1.2049850000
Cu  1.3011100000  -0.0047860000  0.0004130000
O  2.9882210000  -0.0099020000  0.0008800000