5
charge=2, multiplicity=1, basis=def2-QZVPPD, AUX_BASIS_CORR=rimp2-def2-QZVPPD, SCF_ALGORITHM=GDM, xc_grid=000099000590, mem_total=3750, num_basis=418, num_pairs=82700, num_threads=1
Au  -1.5945900000  0.0782180000  -0.0000010000
Au  0.7750960000  1.5170850000  0.0001620000
Au  0.5821610000  -0.8131470000  1.3172030000
Au  0.5821750000  -0.8128590000  -1.3173670000
O  -3.4053130000  0.3031920000  0.0000380000