5
charge=1, multiplicity=1, basis=def2-QZVPPD, AUX_BASIS_CORR=rimp2-def2-QZVPPD, SCF_ALGORITHM=GDM, xc_grid=000099000590, mem_total=3750, num_basis=440, num_pairs=95228, num_threads=1
Au  0.0000000000  0.0000000000  1.5498900000
Au  1.3422440000  0.0000000000  -0.7749450000
Au  -1.3422440000  0.0000000000  -0.7749450000
Au  0.0000000000  -2.2860930000  0.0000000000
Au  0.0000000000  2.2860930000  0.0000000000