8
charge=2, multiplicity=1, basis=def2-QZVPPD, AUX_BASIS_CORR=rimp2-def2-QZVPPD, SCF_ALGORITHM=GDM, xc_grid=000250000974, mem_total=7500, num_basis=657, num_pairs=184764, num_threads=2
Ag  0.0000000000  2.0072700000  0.2254060000
Ag  -2.0072700000  0.0000000000  0.2254060000
Ag  2.0072700000  0.0000000000  0.2254060000
Ag  0.0000000000  -2.0072700000  0.2254060000
Ag  0.0000000000  0.0000000000  2.2326760000
Ag  0.0000000000  0.0000000000  -1.7818640000
C  0.0000000000  0.0000000000  -3.8971650000
O  0.0000000000  0.0000000000  -5.0226880000