5
charge=2, multiplicity=1, basis=def2-QZVPPD, AUX_BASIS_CORR=rimp2-def2-QZVPPD, SCF_ALGORITHM=GDM, xc_grid=000099000590, mem_total=3750, num_basis=466, num_pairs=101260, num_threads=1
Cu  1.3810270000  -0.7954100000  0.3629660000
Cu  -0.0001790000  1.5930480000  0.3605750000
Cu  -1.3810310000  -0.7952060000  0.3627630000
Cu  0.0002160000  -0.0025250000  -1.6064170000
O  -0.0000330000  0.0000930000  1.2210420000