3
charge=1, multiplicity=1, basis=def2-QZVPPD, AUX_BASIS_CORR=rimp2-def2-QZVPPD, SCF_ALGORITHM=GDM, xc_grid=000099000590, mem_total=3750, num_basis=264, num_pairs=34884, num_threads=1
Ag  0.0000000000  1.5298770000  0.0000000000
Ag  1.3249120000  -0.7649380000  0.0000000000
Ag  -1.3249120000  -0.7649380000  0.0000000000