3
charge=1, multiplicity=1, basis=def2-QZVPPD, AUX_BASIS_CORR=rimp2-def2-QZVPPD, SCF_ALGORITHM=GDM, xc_grid=000099000590, mem_total=3750, num_basis=300, num_pairs=43623, num_threads=1
Cu  0.0000000000  1.3492610000  0.0000000000
Cu  1.1684940000  -0.6746300000  0.0000000000
Cu  -1.1684940000  -0.6746300000  0.0000000000