15
charge=0, multiplicity=1, basis=def2-QZVPPD, AUX_BASIS_CORR=rimp2-def2-QZVPPD, SCF_ALGORITHM=GDM, xc_grid=000099000590, mem_total=7500, num_basis=705, num_pairs=240056, num_threads=2
C  0.0000000000  -1.1149227981  -0.2125422928
C  1.2331543766  -0.6640097194  0.5764958019
C  1.2331543766  0.6640097194  0.5764958019
C  0.0000000000  1.1149227981  -0.2125422928
C  0.0000000000  0.0000000000  -1.2851321589
C  -1.2331543766  -0.6640097194  0.5764958019
C  -1.2331543766  0.6640097194  0.5764958019
H  0.0000000000  -2.1486123930  -0.5535406597
H  1.9213243000  -1.3297542928  1.0792874495
H  1.9213243000  1.3297542928  1.0792874495
H  0.0000000000  2.1486123930  -0.5535406597
H  -0.9003039639  0.0000000000  -1.9029174709
H  0.9003039639  0.0000000000  -1.9029174709
H  -1.9213243000  -1.3297542928  1.0792874495
H  -1.9213243000  1.3297542928  1.0792874495