18
charge=0, multiplicity=1, basis=def2-QZVPPD, AUX_BASIS_CORR=rimp2-def2-QZVPPD, SCF_ALGORITHM=GDM, xc_grid=000099000590, mem_total=15000, num_basis=966, num_pairs=419720, num_threads=4
C  0.6706741880  0.5268048803  -1.0619470493
C  -0.4688797243  -0.5016940493  -0.7636384678
C  -0.4688797243  -0.5016940493  0.7636384678
C  0.6706741880  0.5268048803  1.0619470493
C  1.9596246388  -0.1577073252  -0.6641267401
C  1.9596246388  -0.1577073252  0.6641267401
O  0.4734402885  1.4489577620  0.0000000000
C  -1.8198315486  0.0566975838  -1.1365321614
C  -1.8198315486  0.0566975838  1.1365321614
O  -2.5309767081  0.3628037482  0.0000000000
O  -2.2680862348  0.2384832583  2.2195965404
O  -2.2680862348  0.2384832583  -2.2195965404
H  0.6116096801  1.0137841959  -2.0317629113
H  -0.3165938034  -1.4598981447  -1.2573782078
H  -0.3165938034  -1.4598981447  1.2573782078
H  0.6116096801  1.0137841959  2.0317629113
H  2.6602510141  -0.6223511542  -1.3432391190
H  2.6602510141  -0.6223511542  1.3432391190