19
charge=0, multiplicity=1, basis=def2-QZVPPD, AUX_BASIS_CORR=rimp2-def2-QZVPPD, SCF_ALGORITHM=GDM, xc_grid=000099000590, mem_total=15000, num_basis=996, num_pairs=451054, num_threads=4
C  1.2282131840  0.1912659274  -1.0626545941
C  -0.1343660801  0.9066300519  -0.7656098479
C  -0.1343660801  0.9066300519  0.7656098479
C  1.2282131840  0.1912659274  1.0626545941
C  1.0741582942  -1.2592387121  -0.6644666342
C  1.0741582942  -1.2592387121  0.6644666342
O  2.0142806895  0.7151109772  0.0000000000
C  -1.3825660201  0.1545721621  -1.1679920855
C  -1.3825660201  0.1545721621  1.1679920855
N  -2.0305365522  -0.2060524656  0.0000000000
O  -1.7669019317  -0.1023301572  2.2773075439
O  -1.7669019317  -0.1023301572  -2.2773075439
H  1.6670989408  0.4147337028  -2.0308132219
H  -0.1378454901  1.9003512814  -1.2130486929
H  -0.1378454901  1.9003512814  1.2130486929
H  1.6670989408  0.4147337028  2.0308132219
H  0.8988559185  -2.0822850733  -1.3425011397
H  0.8988559185  -2.0822850733  1.3425011397
H  -2.8770377681  -0.7564568777  0.0000000000