16
charge=0, multiplicity=1, basis=def2-QZVPPD, mem_total=7500, AUX_BASIS_CORR=rimp2-def2-QZVPPD, SCF_ALGORITHM=GDM, xc_grid=000099000590, num_basis=708, num_pairs=238496, num_threads=2
C  -0.6618947456  -0.0597097863  -1.3939104880
C  -1.4862093295  -0.1135483971  -0.1447192601
C  -0.6916277136  0.3175364830  1.0817260627
C  0.6916277136  -0.3175364830  1.0817260627
C  1.4862093295  0.1135483971  -0.1447192601
C  0.6618947456  0.0597097863  -1.3939104880
H  -1.1902761463  -0.1187977758  -2.3417614574
H  -2.3732547257  0.5181049791  -0.2635820294
H  -1.8712837889  -1.1332688471  -0.0073155231
H  -1.2355401906  0.0608749738  1.9949692569
H  -0.5837690742  1.4083422329  1.0745934384
H  1.2355401906  -0.0608749738  1.9949692569
H  0.5837690742  -1.4083422329  1.0745934384
H  2.3732547257  -0.5181049791  -0.2635820294
H  1.8712837889  1.1332688471  -0.0073155231
H  1.1902761463  0.1187977758  -2.3417614574