10
charge=0, multiplicity=1, basis=def2-QZVPPD, AUX_BASIS_CORR=rimp2-def2-QZVPPD, SCF_ALGORITHM=GDM, xc_grid=000099000590, mem_total=3750, num_basis=546, num_pairs=142377, num_threads=1
C  1.1467005902  0.0000000000  0.3971731371
C  0.6642393156  0.0000000000  -1.0189390471
C  -0.6642393156  0.0000000000  -1.0189390471
C  -1.1467005902  0.0000000000  0.3971731371
N  0.0000000000  0.0000000000  1.1742867532
O  2.2785337434  0.0000000000  0.7980930508
O  -2.2785337434  0.0000000000  0.7980930508
H  1.3498237499  0.0000000000  -1.8537445434
H  -1.3498237499  0.0000000000  -1.8537445434
H  0.0000000000  0.0000000000  2.1805480519