17
charge=0, multiplicity=1, basis=def2-QZVPPD, AUX_BASIS_CORR=rimp2-def2-QZVPPD, SCF_ALGORITHM=GDM, xc_grid=000099000590, mem_total=7500, num_basis=771, num_pairs=286393, num_threads=2
C  -0.3176041285  0.2024081413  -1.1199049230
C  0.5158761124  1.3778302786  -0.6663859498
C  0.5158761124  1.3778302786  0.6663859498
C  -0.3176041285  0.2024081413  1.1199049230
C  -1.3650473293  0.1599467698  0.0000000000
C  0.5135517731  -1.0649369726  -0.7737291033
C  0.5135517731  -1.0649369726  0.7737291033
H  -0.6831758771  0.2356233798  -2.1456787412
H  1.1024085707  2.0112819137  -1.3203179182
H  1.1024085707  2.0112819137  1.3203179182
H  -0.6831758771  0.2356233798  2.1456787412
H  -2.0206286894  1.0324589114  0.0000000000
H  -1.9607967686  -0.7575762321  0.0000000000
H  0.0252398516  -1.9591521635  -1.1690493075
H  1.5169400913  -1.0204693018  -1.1994296266
H  0.0252398516  -1.9591521635  1.1690493075
H  1.5169400913  -1.0204693018  1.1994296266