19
charge=0, multiplicity=1, basis=def2-QZVPPD, AUX_BASIS_CORR=rimp2-def2-QZVPPD, SCF_ALGORITHM=GDM, xc_grid=000099000590, mem_total=15000, num_basis=996, num_pairs=442990, num_threads=4
C  0.8476441856  0.4892597276  -1.0622734120
C  -0.2935955406  -0.5331029312  -0.7678368727
C  -0.2935955406  -0.5331029312  0.7678368727
C  0.8476441856  0.4892597276  1.0622734120
C  2.1352066475  -0.1990182516  -0.6641312584
C  2.1352066475  -0.1990182516  0.6641312584
O  0.6567679786  1.4146560363  0.0000000000
C  -1.6484521253  0.0191615884  -1.1635613407
C  -1.6484521253  0.0191615884  1.1635613407
N  -2.3383124700  0.2942055277  0.0000000000
O  -2.0645546222  0.1998970143  2.2757880854
O  -2.0645546222  0.1998970143  -2.2757880854
H  0.7926980621  0.9775907467  -2.0318355004
H  -0.1328324639  -1.4956811087  -1.2514183112
H  -0.1328324639  -1.4956811087  1.2514183112
H  0.7926980621  0.9775907467  2.0318355004
H  2.8334968820  -0.6682384329  -1.3426678647
H  2.8334968820  -0.6682384329  1.3426678647
H  -3.2576775592  0.7114017308  0.0000000000