10
charge=0, multiplicity=1, basis=def2-QZVPPD, AUX_BASIS_CORR=rimp2-def2-QZVPPD, SCF_ALGORITHM=GDM, xc_grid=000099000590, mem_total=3750, num_basis=450, num_pairs=96270, num_threads=1
C  -1.8353011953  -0.1181609656  0.0000000000
C  -0.6065813739  0.3964795289  0.0000000000
C  0.6065813739  -0.3964795289  0.0000000000
C  1.8353011953  0.1181609656  0.0000000000
H  -1.9961018782  -1.1915374835  0.0000000000
H  -2.7159951975  0.5121675419  0.0000000000
H  -0.4778729252  1.4768219374  0.0000000000
H  0.4778729252  -1.4768219374  0.0000000000
H  1.9961018782  1.1915374835  0.0000000000
H  2.7159951975  -0.5121675419  0.0000000000