6
charge=0, multiplicity=1, basis=def2-QZVPPD, AUX_BASIS_CORR=rimp2-def2-QZVPPD, SCF_ALGORITHM=GDM, xc_grid=000099000590, mem_total=3750, num_basis=258, num_pairs=33789, num_threads=1
C  0.6614409885  0.0000000000  0.0000000000
C  -0.6614409885  0.0000000000  0.0000000000
H  1.2309197030  -0.9231107051  0.0000000000
H  1.2309197030  0.9231107051  0.0000000000
H  -1.2309197030  -0.9231107051  0.0000000000
H  -1.2309197030  0.9231107051  0.0000000000