11
charge=0, multiplicity=1, basis=def2-QZVPPD, AUX_BASIS_CORR=rimp2-def2-QZVPPD, SCF_ALGORITHM=GDM, xc_grid=000099000590, mem_total=3750, num_basis=513, num_pairs=129008, num_threads=1
C  0.0000000000  -1.1716272761  0.1906413762
C  0.0000000000  -0.7299275372  -1.0767770032
C  0.0000000000  0.7299275372  -1.0767770032
C  0.0000000000  1.1716272761  0.1906413762
C  0.0000000000  0.0000000000  1.1157899660
H  0.0000000000  -2.2023940542  0.5172869326
H  0.0000000000  -1.3455145682  -1.9671217372
H  0.0000000000  1.3455145682  -1.9671217372
H  0.0000000000  2.2023940542  0.5172869326
H  -0.8758040839  0.0000000000  1.7780754487
H  0.8758040839  0.0000000000  1.7780754487