21
charge=0, multiplicity=1, basis=def2-QZVPPD, AUX_BASIS_CORR=rimp2-def2-QZVPPD, SCF_ALGORITHM=GDM, xc_grid=000099000590, mem_total=30000, num_basis=1059, num_pairs=505699, num_threads=8
C  0.9740469137  0.0874420702  -1.1238712613
C  -0.3679806351  0.8043089376  -0.7686107307
C  -0.3679806351  0.8043089376  0.7686107307
C  0.9740469137  0.0874420702  1.1238712613
C  0.8404986837  -1.3463243353  -0.6664153287
C  0.8404986837  -1.3463243353  0.6664153287
C  1.8570177967  0.6511390589  0.0000000000
C  -1.6214870654  0.0582581501  -1.1681060184
C  -1.6214870654  0.0582581501  1.1681060184
N  -2.2676028704  -0.3026377050  0.0000000000
O  -2.0122726316  -0.1947492495  2.2765365681
O  -2.0122726316  -0.1947492495  -2.2765365681
H  -3.1209089876  -0.8421792766  0.0000000000
H  1.2944040298  0.2426100680  -2.1516178184
H  -0.3942888513  1.8019602466  -1.2107431874
H  -0.3942888513  1.8019602466  1.2107431874
H  1.2944040298  0.2426100680  2.1516178184
H  0.6643259874  -2.1887553730  -1.3224033965
H  0.6643259874  -2.1887553730  1.3224033965
H  1.9173869748  1.7431739556  0.0000000000
H  2.8596142239  0.2210029375  0.0000000000