21
charge=0, multiplicity=1, basis=def2-QZVPPD, AUX_BASIS_CORR=rimp2-def2-QZVPPD, SCF_ALGORITHM=GDM, xc_grid=000099000590, mem_total=30000, num_basis=1059, num_pairs=500873, num_threads=8
C  0.8044330949  0.2930253787  -1.1224372169
C  -0.3536032704  -0.6906701431  -0.7695301531
C  -0.3536032704  -0.6906701431  0.7695301531
C  0.8044330949  0.2930253787  1.1224372169
C  2.0640485347  -0.4096714956  -0.6661249801
C  2.0640485347  -0.4096714956  0.6661249801
C  0.6524288219  1.3282472626  0.0000000000
C  -1.7196546246  -0.1681136190  -1.1659534494
C  -1.7196546246  -0.1681136190  1.1659534494
N  -2.4206578453  0.0820054893  0.0000000000
O  -2.1441098993  0.0147647423  2.2753332352
O  -2.1441098993  0.0147647423  -2.2753332352
H  -3.3574748130  0.4588561782  0.0000000000
H  0.7781937944  0.6471500789  -2.1509085678
H  -0.2068598393  -1.6664959748  -1.2331721408
H  -0.2068598393  -1.6664959748  1.2331721408
H  0.7781937944  0.6471500789  2.1509085678
H  2.7648704964  -0.9083649742  -1.3231611137
H  2.7648704964  -0.9083649742  1.3231611137
H  -0.3093460395  1.8478505127  0.0000000000
H  1.4604133024  2.0597925710  0.0000000000