18
charge=0, multiplicity=1, basis=def2-QZVPPD, AUX_BASIS_CORR=rimp2-def2-QZVPPD, SCF_ALGORITHM=GDM, xc_grid=000099000590, mem_total=15000, num_basis=966, num_pairs=426281, num_threads=4
C  1.0749354096  0.1469884545  -1.0620849253
C  -0.2847347794  0.8763959658  -0.7611817446
C  -0.2847347794  0.8763959658  0.7611817446
C  1.0749354096  0.1469884545  1.0620849253
C  0.9042677125  -1.3015534365  -0.6645359999
C  0.9042677125  -1.3015534365  0.6645359999
O  1.8619522196  0.6651328130  0.0000000000
C  -1.5270529787  0.1182625972  -1.1413618626
C  -1.5270529787  0.1182625972  1.1413618626
O  -2.1854631778  -0.2878909691  0.0000000000
O  -1.9447406463  -0.1399334362  2.2217106703
O  -1.9447406463  -0.1399334362  -2.2217106703
H  1.5127044290  0.3695528291  -2.0307994020
H  -0.2916725401  1.8640342026  -1.2205104237
H  -0.2916725401  1.8640342026  1.2205104237
H  1.5127044290  0.3695528291  2.0307994020
H  0.7180488724  -2.1223680985  -1.3422408640
H  0.7180488724  -2.1223680985  1.3422408640