24
charge=0, multiplicity=1, basis=def2-QZVPPD, AUX_BASIS_CORR=rimp2-def2-QZVPPD, SCF_ALGORITHM=GDM, xc_grid=000099000590, mem_total=30000, num_basis=1152, num_pairs=543347, num_threads=8
C  0.1507942000  -0.1215620000  0.0000000000
C  0.6503769000  -0.8850054000  1.1865651000
C  0.1445909000  -2.0885070000  1.5077370000
C  -0.7466651000  -2.8487730000  0.6796765000
C  -0.7466651000  -2.8487730000  -0.6796765000
C  0.1445909000  -2.0885070000  -1.5077370000
C  0.6503769000  -0.8850054000  -1.1865651000
C  0.5837137000  1.3467209000  0.0000000000
C  0.0830259000  2.1376983000  1.1701551000
C  -0.5805527000  3.2166576000  0.7302882000
C  -0.5805527000  3.2166576000  -0.7302882000
C  0.0830259000  2.1376983000  -1.1701551000
H  -0.9461903000  -0.1651800000  0.0000000000
H  1.4282526000  -0.4422766000  1.8032225000
H  0.4499190000  -2.5473770000  2.4443393000
H  -1.3651705000  -3.5910245000  1.1763922000
H  -1.3651705000  -3.5910245000  -1.1763922000
H  0.4499190000  -2.5473770000  -2.4443393000
H  1.4282526000  -0.4422766000  -1.8032225000
H  1.6864370000  1.3736899000  0.0000000000
H  0.2465029000  1.8578715000  2.2018589000
H  -1.0476573000  3.9739017000  1.3468499000
H  -1.0476573000  3.9739017000  -1.3468499000
H  0.2465029000  1.8578715000  -2.2018589000