20
charge=0, multiplicity=1, basis=def2-QZVPPD, AUX_BASIS_CORR=rimp2-def2-QZVPPD, SCF_ALGORITHM=GDM, xc_grid=000099000590, mem_total=60000, num_basis=1260, num_pairs=765388, num_threads=16
C  1.9665666000  0.0000000000  -0.6998649000
C  1.1780212000  1.1800989000  -1.1195820000
C  0.0000000000  0.7198623000  -1.8110851000
C  0.0000000000  -0.7198623000  -1.8110851000
C  1.1780212000  -1.1800989000  -1.1195820000
C  -1.1780212000  1.1800989000  -1.1195820000
C  -1.9665666000  0.0000000000  -0.6998649000
C  -1.1780212000  -1.1800989000  -1.1195820000
C  -0.7637258000  1.9514898000  0.0000000000
C  -1.1780212000  1.1800989000  1.1195820000
C  -1.9665666000  0.0000000000  0.6998649000
C  -0.7637258000  -1.9514898000  0.0000000000
C  -1.1780212000  -1.1800989000  1.1195820000
C  0.0000000000  -0.7198623000  1.8110851000
C  0.0000000000  0.7198623000  1.8110851000
C  0.7637258000  1.9514898000  0.0000000000
C  1.1780212000  1.1800989000  1.1195820000
C  0.7637258000  -1.9514898000  0.0000000000
C  1.1780212000  -1.1800989000  1.1195820000
C  1.9665666000  0.0000000000  0.6998649000