4
charge=0, multiplicity=1, basis=def2-QZVPPD, AUX_BASIS_CORR=rimp2-def2-QZVPPD, SCF_ALGORITHM=GDM, xc_grid=000099000590, mem_total=3750, num_basis=192, num_pairs=18800, num_threads=1
C  0.0000000000  0.0000000000  0.5995638000
C  0.0000000000  0.0000000000  -0.5995638000
H  0.0000000000  0.0000000000  1.6639394000
H  0.0000000000  0.0000000000  -1.6639394000