7
charge=0, multiplicity=1, basis=def2-QZVPPD, AUX_BASIS_CORR=rimp2-def2-QZVPPD, SCF_ALGORITHM=GDM, xc_grid=000099000590, mem_total=3750, num_basis=390, num_pairs=75544, num_threads=1
O  -0.3731390000  -1.6064389000  0.0000000000
O  0.0407518000  -0.8553721000  1.1331736000
O  0.0407518000  -0.8553721000  -1.1331736000
C  0.0407518000  0.4367224000  0.6601088000
C  0.0407518000  0.4367224000  -0.6601088000
H  0.1050658000  1.2218691000  1.3905295000
H  0.1050658000  1.2218691000  -1.3905295000