11
charge=0, multiplicity=1, basis=def2-QZVPPD, AUX_BASIS_CORR=rimp2-def2-QZVPPD, SCF_ALGORITHM=GDM, xc_grid=000099000590, mem_total=3750, num_basis=573, num_pairs=129935, num_threads=1
C  0.0000000000  0.0000000000  3.8575177000
C  0.0000000000  0.0000000000  2.5471201000
C  0.0000000000  0.0000000000  1.2769384000
C  0.0000000000  0.0000000000  0.0000000000
C  0.0000000000  0.0000000000  -1.2769384000
C  0.0000000000  0.0000000000  -2.5471201000
C  0.0000000000  0.0000000000  -3.8575177000
H  -0.6550561000  0.6550561000  4.4222168000
H  0.6550561000  -0.6550561000  4.4222168000
H  -0.6550561000  -0.6550561000  -4.4222168000
H  0.6550561000  0.6550561000  -4.4222168000