9
charge=0, multiplicity=1, basis=def2-QZVPPD, AUX_BASIS_CORR=rimp2-def2-QZVPPD, SCF_ALGORITHM=GDM, xc_grid=000099000590, mem_total=3750, num_basis=456, num_pairs=103539, num_threads=1
O  -0.6015578000  -1.6259005000  0.0000000000
O  0.0716080000  -1.0609447000  1.0901036000
O  0.0716080000  -1.0609447000  -1.0901036000
C  0.0716080000  0.3180538000  0.7706417000
C  0.0716080000  0.3180538000  -0.7706417000
H  -0.8151927000  0.8154326000  1.1676606000
H  -0.8151927000  0.8154326000  -1.1676606000
H  0.9727557000  0.7404086000  1.2093856000
H  0.9727557000  0.7404086000  -1.2093856000