24
charge=0, multiplicity=1, basis=def2-QZVPPD, AUX_BASIS_CORR=rimp2-def2-QZVPPD, SCF_ALGORITHM=GDM, xc_grid=000099000590, mem_total=30000, num_basis=1152, num_pairs=612324, num_threads=8
C  -1.1934517000  -0.6890397000  -0.3523943000
C  -0.7530970000  -0.4348008000  -1.7875032000
C  0.0000000000  0.8696015000  -1.7875032000
C  0.0000000000  1.3780793000  -0.3523943000
C  -1.1934517000  0.6890397000  0.3523943000
C  0.0000000000  -1.3780793000  0.3523943000
C  1.1934517000  -0.6890397000  -0.3523943000
C  0.7530970000  -0.4348008000  -1.7875032000
C  0.0000000000  -0.8696015000  1.7875032000
C  -0.7530970000  0.4348008000  1.7875032000
C  1.1934517000  0.6890397000  0.3523943000
C  0.7530970000  0.4348008000  1.7875032000
H  -2.1342244000  -1.2321951000  -0.2501843000
H  -1.3267714000  -0.7660118000  -2.6440116000
H  0.0000000000  1.5320236000  -2.6440116000
H  0.0000000000  2.4643901000  -0.2501843000
H  -2.1342244000  1.2321951000  0.2501843000
H  0.0000000000  -2.4643901000  0.2501843000
H  2.1342244000  -1.2321951000  -0.2501843000
H  1.3267714000  -0.7660118000  -2.6440116000
H  0.0000000000  -1.5320236000  2.6440116000
H  -1.3267714000  0.7660118000  2.6440116000
H  2.1342244000  1.2321951000  0.2501843000
H  1.3267714000  0.7660118000  2.6440116000