20
charge=0, multiplicity=1, basis=def2-QZVPPD, AUX_BASIS_CORR=rimp2-def2-QZVPPD, SCF_ALGORITHM=GDM, xc_grid=000099000590, mem_total=30000, num_basis=1260, num_pairs=678335, num_threads=8
C  3.1468549000  0.6254851000  -0.2401423000
C  2.0780896000  1.5098205000  0.0099138000
C  0.9793910000  0.7115692000  0.4703707000
C  0.9793910000  -0.7115692000  0.4703707000
C  2.0780896000  -1.5098205000  0.0099138000
C  3.1468549000  -0.6254851000  -0.2401423000
C  -0.3740941000  -1.1513431000  0.4703707000
C  -1.2105938000  0.0000000000  0.4703707000
C  -0.3740941000  1.1513431000  0.4703707000
C  1.5673033000  2.7995514000  -0.2401423000
C  0.3775600000  3.1861224000  -0.2401423000
C  -0.7937596000  2.4429408000  0.0099138000
C  1.5673033000  -2.7995514000  -0.2401423000
C  0.3775600000  -3.1861224000  -0.2401423000
C  -0.7937596000  -2.4429408000  0.0099138000
C  -2.1782082000  -2.3557030000  -0.2401423000
C  -2.9135100000  -1.3436469000  -0.2401423000
C  -2.5686600000  0.0000000000  0.0099138000
C  -2.9135100000  1.3436469000  -0.2401423000
C  -2.1782082000  2.3557030000  -0.2401423000