11
charge=0, multiplicity=1, basis=def2-QZVPPD, AUX_BASIS_CORR=rimp2-def2-QZVPPD, SCF_ALGORITHM=GDM, xc_grid=000099000590, mem_total=3750, num_basis=573, num_pairs=129978, num_threads=1
C  0.0000000000  0.0000000000  -4.5737156000
C  0.0000000000  0.0000000000  -3.3658824000
C  0.0000000000  0.0000000000  -2.0106319000
C  0.0000000000  0.0000000000  -0.7943022000
C  0.0000000000  0.0000000000  0.5598923000
C  0.0000000000  0.0000000000  1.7700662000
C  0.0000000000  0.0000000000  3.2196007000
H  0.0000000000  0.0000000000  -5.6360271000
H  -0.5103590000  -0.8839677000  3.6103333000
H  -0.5103590000  0.8839677000  3.6103333000
H  1.0207180000  0.0000000000  3.6103333000