12
charge=0, multiplicity=1, basis=def2-QZVPPD, mem_total=7500, AUX_BASIS_CORR=rimp2-def2-QZVPPD, SCF_ALGORITHM=GDM, xc_grid=000099000590, num_basis=765, num_pairs=251001, num_threads=2
O  -1.8507645000  3.2056181000  0.0000000000
C  -1.2533914000  2.1709376000  0.0000000000
C  -1.2139101000  0.7146014000  0.0000000000
C  -1.2139101000  -0.7146014000  0.0000000000
C  -1.2533914000  -2.1709376000  0.0000000000
O  -1.8507645000  -3.2056181000  0.0000000000
C  -0.0119079000  -1.4085777000  0.0000000000
C  1.2258181000  -0.6939763000  0.0000000000
C  2.5067828000  0.0000000000  0.0000000000
O  3.7015289000  0.0000000000  0.0000000000
C  1.2258181000  0.6939763000  0.0000000000
C  -0.0119079000  1.4085777000  0.0000000000