36
charge=0, multiplicity=1, basis=def2-QZVPPD, AUX_BASIS_CORR=rimp2-def2-QZVPPD, SCF_ALGORITHM=GDM, xc_grid=000099000590, mem_total=60000, num_basis=1548, num_pairs=1007338, num_threads=16
C  -0.7896879000  0.7896879000  -0.0934025000
C  -0.7896879000  -0.7896879000  0.0934025000
C  0.7896879000  -0.7896879000  -0.0934025000
C  0.7896879000  0.7896879000  0.0934025000
C  -1.6075822000  1.6075822000  0.9194274000
C  -1.2469837000  1.2469837000  -1.4910651000
C  -1.2469837000  -1.2469837000  1.4910651000
C  -1.6075822000  -1.6075822000  -0.9194274000
C  1.2469837000  -1.2469837000  -1.4910651000
C  1.6075822000  -1.6075822000  0.9194274000
C  1.2469837000  1.2469837000  1.4910651000
C  1.6075822000  1.6075822000  -0.9194274000
H  -1.3672705000  1.3672705000  1.9553787000
H  -1.4269269000  2.6778795000  0.7693540000
H  -2.6778795000  1.4269269000  0.7693540000
H  -0.7317362000  0.7317362000  -2.3016732000
H  -2.3204607000  1.0676081000  -1.6085856000
H  -1.0676081000  2.3204607000  -1.6085856000
H  -0.7317362000  -0.7317362000  2.3016732000
H  -2.3204607000  -1.0676081000  1.6085856000
H  -1.0676081000  -2.3204607000  1.6085856000
H  -1.3672705000  -1.3672705000  -1.9553787000
H  -1.4269269000  -2.6778795000  -0.7693540000
H  -2.6778795000  -1.4269269000  -0.7693540000
H  0.7317362000  -0.7317362000  -2.3016732000
H  2.3204607000  -1.0676081000  -1.6085856000
H  1.0676081000  -2.3204607000  -1.6085856000
H  1.3672705000  -1.3672705000  1.9553787000
H  1.4269269000  -2.6778795000  0.7693540000
H  2.6778795000  -1.4269269000  0.7693540000
H  0.7317362000  0.7317362000  2.3016732000
H  2.3204607000  1.0676081000  1.6085856000
H  1.0676081000  2.3204607000  1.6085856000
H  1.3672705000  1.3672705000  -1.9553787000
H  1.4269269000  2.6778795000  -0.7693540000
H  2.6778795000  1.4269269000  -0.7693540000