3
charge=0, multiplicity=1, basis=def2-QZVPPD, AUX_BASIS_CORR=rimp2-def2-QZVPPD, SCF_ALGORITHM=GDM, xc_grid=000099000590, mem_total=3750, num_basis=198, num_pairs=20011, num_threads=1
O  -1.0605376000  0.0000000000  -0.2100729000
O  0.0000000000  0.0000000000  0.4201459000
O  1.0605376000  0.0000000000  -0.2100729000