4
charge=0, multiplicity=2, basis=AUG-PC-3, multipole_field={'X': -0.0001}, AUX_BASIS_CORR=rimp2-def2-QZVPPD, SCF_ALGORITHM=GDM, xc_grid=000099000590, mem_total=3750, num_basis=278, num_pairs=38464, num_threads=1
H       0.0000000000     0.0000000000     0.0000000000
F       0.0000000000     0.0000000000     0.9277290177
O       0.1690836319     0.0000000000    -1.8030985863
H       1.1037819369     0.0000000000    -2.0681164821