6
charge=0, multiplicity=1, basis=AUG-PC-3, multipole_field={'Z': -0.0001}, AUX_BASIS_CORR=rimp2-def2-QZVPPD, SCF_ALGORITHM=GDM, xc_grid=000099000590, mem_total=3750, num_basis=417, num_pairs=85596, num_threads=1
O       0.0000000000     0.0000000000     0.0000000000
H       0.0000000000     0.0000000000     0.9630450000
B       1.2119533708     0.0000000000    -0.5375448272
C       2.4619212351     0.0000000000    -1.1461501387
H       2.9689994209     0.9208690341    -1.3911432627
H       2.9689001800    -0.9208733275    -1.3913324370