5
charge=0, multiplicity=1, basis=AUG-PC-3, multipole_field={'Z': -0.0001}, AUX_BASIS_CORR=rimp2-def2-QZVPPD, SCF_ALGORITHM=GDM, xc_grid=000099000590, mem_total=3750, num_basis=328, num_pairs=54560, num_threads=1
C1      0.0000  0.0000  -0.6244
F2      0.0000  0.0000  0.7402
H3      0.0000  1.0245  -0.9718
H4      0.8873  -0.5123 -0.9718
H5      -0.8873 -0.5123 -0.9718