6
charge=0, multiplicity=1, basis=AUG-PC-3, multipole_field={'Z': -0.0001}, AUX_BASIS_CORR=rimp2-def2-QZVPPD, SCF_ALGORITHM=GDM, xc_grid=000099000590, mem_total=3750, num_basis=378, num_pairs=69264, num_threads=1
O       1.5317500000     0.0059220000    -0.1208800000
H       0.5759680000    -0.0052490000     0.0249660000
H       1.9062490000    -0.0375610000     0.7632180000
O      -1.3962260000    -0.0049900000     0.1067660000
H      -1.7893720000    -0.7422830000    -0.3710090000
H      -1.7770370000     0.7776380000    -0.3042640000