6
charge=0, multiplicity=1, basis=AUG-PC-3, multipole_field={'Z': 0.0001}, AUX_BASIS_CORR=rimp2-def2-QZVPPD, SCF_ALGORITHM=GDM, xc_grid=000099000590, mem_total=3750, num_basis=417, num_pairs=86238, num_threads=1
        C         0.0000000000    0.0000000000   -1.2996000000
        B         0.0000000000    0.0000000000    0.2378000000
        O         0.0000000000    0.0000000000    1.4554000000
        H         0.0000000000    1.0193000000   -1.6782000000
        H         0.8827000000   -0.5096000000   -1.6782000000
        H        -0.8827000000   -0.5096000000   -1.6782000000