6
charge=0, multiplicity=1, basis=AUG-PC-3, multipole_field={'Y': 0.0001}, AUX_BASIS_CORR=rimp2-def2-QZVPPD, SCF_ALGORITHM=GDM, xc_grid=000099000590, mem_total=3750, num_basis=378, num_pairs=67153, num_threads=1
S         -2.030996    0.103233   -0.000782
H         -1.934020   -0.818462    0.969676
H         -1.940450   -0.836616   -0.954299
S          2.079838   -0.085112    0.000181
H          2.339154    1.231019   -0.002214
H          0.753848    0.134121   -0.003537