4
charge=0, multiplicity=2, basis=AUG-PC-3, multipole_field={'Z': -0.0001}, AUX_BASIS_CORR=rimp2-def2-QZVPPD, SCF_ALGORITHM=GDM, xc_grid=000099000590, mem_total=3750, num_basis=278, num_pairs=39110, num_threads=1
Al      0.0000000000     0.0000000000     0.0000000000
O       0.0000000000     0.0000000000     2.2121152736
H       0.8085587428     0.0000000000     2.7305871659
H      -0.6888860400     0.4233240654     2.7305871659