5
charge=0, multiplicity=1, basis=AUG-PC-3, multipole_field={'Z': -0.0001}, AUX_BASIS_CORR=rimp2-def2-QZVPPD, SCF_ALGORITHM=GDM, xc_grid=000099000590, mem_total=3750, num_basis=328, num_pairs=54434, num_threads=1
 P         0.0000000000    0.0000000000    0.3836000000
 O         0.0000000000    0.0000000000   -1.1042000000
 H         0.0000000000    1.2521000000    1.0264000000
 H        -1.0844000000   -0.6261000000    1.0264000000
 H         1.0844000000   -0.6261000000    1.0264000000