7
charge=0, multiplicity=2, basis=AUG-PC-3, multipole_field={'Y': -0.0001}, AUX_BASIS_CORR=rimp2-def2-QZVPPD, SCF_ALGORITHM=GDM, xc_grid=000099000590, mem_total=3750, num_basis=428, num_pairs=91978, num_threads=1
        C        -0.0118000000   -0.6932000000    0.0000000000
        C        -0.0118000000    0.7930000000    0.0000000000
        H         1.0059000000   -1.0974000000    0.0000000000
        H        -0.5089000000   -1.0936000000    0.8816000000
        H        -0.5089000000   -1.0936000000   -0.8816000000
        H         0.0769000000    1.3430000000   -0.9217000000
       H         0.0769000000    1.3430000000    0.9217000000