8
charge=0, multiplicity=1, basis=AUG-PC-3, multipole_field={'Z': -0.0001}, AUX_BASIS_CORR=rimp2-def2-QZVPPD, SCF_ALGORITHM=GDM, xc_grid=000099000590, mem_total=3750, num_basis=478, num_pairs=114155, num_threads=1
B     0.0000  0.0000  -0.9223
N     0.0000  0.0000  0.7230
H     0.0000  -1.1647 -1.2344
H     -1.0087 0.5824  -1.2344
H     1.0087  0.5824  -1.2344
H     0.0000  0.9432  1.0845
H     -0.8168 -0.4716 1.0845
H     0.8168  -0.4716 1.0845