5
charge=0, multiplicity=1, basis=AUG-PC-3, multipole_field={'Z': 0.0001}, AUX_BASIS_CORR=rimp2-def2-QZVPPD, SCF_ALGORITHM=GDM, xc_grid=000099000590, mem_total=3750, num_basis=328, num_pairs=52382, num_threads=1
S                    1.842529    0.000013   -0.101543
H                    1.822779   -0.961810    0.834650
H                    1.821877    0.961860    0.834622
Cl                   -1.911636   -0.000011    0.003498
H                   -0.627317   -0.000058   -0.104051