4
charge=0, multiplicity=1, basis=AUG-PC-3, multipole_field={'Z': -0.0001}, AUX_BASIS_CORR=rimp2-def2-QZVPPD, SCF_ALGORITHM=GDM, xc_grid=000099000590, mem_total=3750, num_basis=317, num_pairs=50893, num_threads=1
B1      0.0000  0.0000  0.4547
H2      0.0000  0.0000  1.6437
F3      0.0000  1.1255  -0.2176
F4      0.0000  -1.1255 -0.2176