4
charge=0, multiplicity=2, basis=AUG-PC-3, multipole_field={'X': 0.0001}, AUX_BASIS_CORR=rimp2-def2-QZVPPD, SCF_ALGORITHM=GDM, xc_grid=000099000590, mem_total=3750, num_basis=278, num_pairs=38753, num_threads=1
Cl      0.0000000000     0.0000000000     0.0000000000
O       0.0000000000     0.0000000000     2.5930061848
H       0.9542692627     0.0000000000     2.7015650834
H      -0.2592123208     0.9183892413     2.7015650834