4
charge=0, multiplicity=1, basis=AUG-PC-3, multipole_field={'Y': 0.0001}, AUX_BASIS_CORR=rimp2-def2-QZVPPD, SCF_ALGORITHM=GDM, xc_grid=000099000590, mem_total=3750, num_basis=317, num_pairs=50815, num_threads=1
N1      -1.1636 -0.0605 0.0000
N2      0.0730  -0.0184 0.0000
N3      1.2052  0.0203  0.0000
H4      -1.5922 0.8151  0.0000