4
charge=0, multiplicity=2, basis=AUG-PC-3, multipole_field={'X': 0.0001}, AUX_BASIS_CORR=rimp2-def2-QZVPPD, SCF_ALGORITHM=GDM, xc_grid=000099000590, mem_total=3750, num_basis=278, num_pairs=39292, num_threads=1
        C        -0.0287000000    0.6550000000    0.0000000000
        F        -0.0287000000   -0.6819000000    0.0000000000
        H         0.2150000000    1.1036000000    0.9474000000
        H         0.2150000000    1.1036000000   -0.9474000000