3
charge=0, multiplicity=1, basis=AUG-PC-3, multipole_field={'Z': -0.0001}, AUX_BASIS_CORR=rimp2-def2-QZVPPD, SCF_ALGORITHM=GDM, xc_grid=000099000590, mem_total=3750, num_basis=267, num_pairs=35819, num_threads=1
S1      0.0000  0.0000  0.8544
Cl2     0.0000  1.5740  -0.4021
Cl3     0.0000  -1.5740 -0.4021