4
charge=0, multiplicity=1, basis=AUG-PC-3, multipole_field={'Z': -0.0001}, AUX_BASIS_CORR=rimp2-def2-QZVPPD, SCF_ALGORITHM=GDM, xc_grid=000099000590, mem_total=3750, num_basis=317, num_pairs=50539, num_threads=1
B1      0.0000  0.0000  0.7189
H2      0.0000  0.0000  1.8489
Cl3     0.0000  1.5132  -0.1601
Cl4     0.0000  -1.5132 -0.1601