4
charge=0, multiplicity=1, basis=AUG-PC-3, multipole_field={'Y': -0.0001}, AUX_BASIS_CORR=rimp2-def2-QZVPPD, SCF_ALGORITHM=GDM, xc_grid=000099000590, mem_total=3750, num_basis=317, num_pairs=50946, num_threads=1
C1      0.0000  0.3968  0.0000
O2      1.1472  0.1164  0.0000
F3      -0.9711 -0.5236 0.0000
H4      -0.4378 1.4005  0.0000