4
charge=0, multiplicity=1, basis=AUG-PC-3, multipole_field={'Y': -0.0001}, AUX_BASIS_CORR=rimp2-def2-QZVPPD, SCF_ALGORITHM=GDM, xc_grid=000099000590, mem_total=3750, num_basis=317, num_pairs=50412, num_threads=1
        O        -1.0879000000   -0.4523000000    0.0000000000
        N         0.0000000000    0.0315000000    0.0000000000
        C         1.1369000000    0.3774000000    0.0000000000
        H         1.8819000000    1.1338000000    0.0000000000