5
charge=0, multiplicity=1, basis=AUG-PC-3, multipole_field={'Z': 0.0001}, AUX_BASIS_CORR=rimp2-def2-QZVPPD, SCF_ALGORITHM=GDM, xc_grid=000099000590, mem_total=3750, num_basis=328, num_pairs=53979, num_threads=1
        C         0.0000000000    0.0000000000    0.5940000000
        B         0.0000000000    0.0000000000   -0.7886000000
        H         0.0000000000    0.9173000000    1.1687000000
        H         0.0000000000   -0.9173000000    1.1687000000
        H         0.0000000000    0.0000000000   -1.9586000000