4
charge=2, multiplicity=1, basis=def2-QZVPPD, AUX_BASIS_CORR=rimp2-def2-QZVPPD, SCF_ALGORITHM=GDM, xc_grid=000099000590, mem_total=3750, num_basis=195, num_pairs=19437, num_threads=1
C  0.0000000000  0.0000000000  -0.2392406000
O  0.0000000000  0.0000000000  -1.3668693000
H  0.7976565000  0.0000000000  0.8030549500
H  -0.7976565000  0.0000000000  0.8030549500