3
charge=2, multiplicity=1, basis=def2-QZVPPD, AUX_BASIS_CORR=rimp2-def2-QZVPPD, SCF_ALGORITHM=GDM, xc_grid=000099000590, mem_total=3750, num_basis=145, num_pairs=10840, num_threads=1
S  0.0000000000  0.0000000000  -0.6478378400
H  1.0565968000  0.0000000000  0.3239189200
H  -1.0565968000  0.0000000000  0.3239189200