4
charge=0, multiplicity=1, basis=def2-QZVPPD, AUX_BASIS_CORR=rimp2-def2-QZVPPD, SCF_ALGORITHM=GDM, xc_grid=000099000590, mem_total=3750, num_basis=195, num_pairs=19475, num_threads=1
C  0.0000000000  0.0000000000  0.0076143900
O  0.0000000000  0.0000000000  -1.2023134900
H  0.9416001900  0.0000000000  0.5973495500
H  -0.9416001900  0.0000000000  0.5973495500