8
charge=2, multiplicity=1, basis=def2-QZVPPD, AUX_BASIS_CORR=rimp2-def2-QZVPPD, SCF_ALGORITHM=GDM, xc_grid=000099000590, mem_total=3750, num_basis=384, num_pairs=73502, num_threads=1
C  -0.7251208400  0.7251208400  0.0000000000
C  -0.7251208400  -0.7251208400  0.0000000000
C  0.7251208400  -0.7251208400  0.0000000000
C  0.7251208400  0.7251208400  0.0000000000
H  -1.5012283200  1.5012283200  0.0000000000
H  -1.5012283200  -1.5012283200  0.0000000000
H  1.5012283200  -1.5012283200  0.0000000000
H  1.5012283200  1.5012283200  0.0000000000