4
charge=0, multiplicity=1, basis=def2-QZVPPD, AUX_BASIS_CORR=rimp2-def2-QZVPPD, SCF_ALGORITHM=GDM, xc_grid=000099000590, mem_total=3750, num_basis=162, num_pairs=13492, num_threads=1
N  0.0000000000  0.0000000000  -0.2909162900
H  0.4715868500  -0.8168123800  0.0969721000
H  0.4715868500  0.8168123800  0.0969721000
H  -0.9431737000  0.0000000000  0.0969721000