3
charge=-1, multiplicity=2, basis=AUG-PC-4, AUX_BASIS_CORR=rimp2-def2-QZVPPD, SCF_ALGORITHM=GDM, xc_grid=000099000590, mem_total=3750, num_basis=317, num_pairs=51007, num_threads=1
Si  0.0000000000  0.0000000000  0.0000000000
H  0.0000000000  0.0000000000  1.5140000000
H  1.5130777100  0.0000000000  -0.0528378400