5
charge=0, multiplicity=2, basis=AUG-PC-4, mem_total=3750, AUX_BASIS_CORR=rimp2-def2-QZVPPD, SCF_ALGORITHM=GDM, xc_grid=000099000590, num_basis=554, num_pairs=154248, num_threads=1
C  0.0000000000  0.0000000000  -0.5899000000
O  0.0000000000  0.0000000000  0.8151000000
H  0.0000000000  1.0360000000  -0.9938000000
H  0.8972000000  -0.5180000000  -0.9938000000
H  -0.8972000000  -0.5180000000  -0.9938000000