3
charge=-1, multiplicity=1, basis=AUG-PC-4, AUX_BASIS_CORR=rimp2-def2-QZVPPD, SCF_ALGORITHM=GDM, xc_grid=000099000590, mem_total=3750, num_basis=378, num_pairs=72439, num_threads=1
C  0.0000000000  0.0000000000  0.0000000000
C  0.0000000000  0.0000000000  -1.2165000000
H  0.0000000000  0.0000000000  1.0465000000