6
charge=-1, multiplicity=1, basis=AUG-PC-4, AUX_BASIS_CORR=rimp2-def2-QZVPPD, SCF_ALGORITHM=GDM, xc_grid=000099000590, mem_total=7500, num_basis=699, num_pairs=240829, num_threads=2
C  -0.4384960000  -1.0323890000  0.0000000000
C  0.0000000000  0.3538920000  0.0000000000
H  0.4325370000  -1.6975040000  0.0000000000
H  -1.0290040000  -1.2608290000  0.8919220000
H  -1.0290040000  -1.2608290000  -0.8919220000
C  0.7094080000  1.3816910000  0.0000000000