6
charge=-1, multiplicity=1, basis=AUG-PC-4, AUX_BASIS_CORR=rimp2-def2-QZVPPD, SCF_ALGORITHM=GDM, xc_grid=000099000590, mem_total=7500, num_basis=699, num_pairs=236204, num_threads=2
C  0.0000000000  0.0000000000  -1.2512000000
C  0.0000000000  0.0000000000  0.1159000000
C  0.0000000000  0.0000000000  1.3383000000
H  0.0000000000  0.9288000000  -1.8099000000
H  0.0000000000  -0.9288000000  -1.8099000000
H  0.0000000000  0.0000000000  2.4018000000