3
charge=-1, multiplicity=1, basis=AUG-PC-4, AUX_BASIS_CORR=rimp2-def2-QZVPPD, SCF_ALGORITHM=GDM, xc_grid=000099000590, mem_total=3750, num_basis=431, num_pairs=92438, num_threads=1
P  0.0000000000  0.0000000000  -0.2835446133
O  0.0000000000  -1.3566989775  0.2745386103
O  0.0000000000  1.3566989775  0.2745386103