3
charge=0, multiplicity=2, basis=AUG-PC-4, AUX_BASIS_CORR=rimp2-def2-QZVPPD, SCF_ALGORITHM=GDM, xc_grid=000099000590, mem_total=3750, num_basis=435, num_pairs=95287, num_threads=1
N  0.0000000000  0.0000000000  -1.2635000000
C  0.0000000000  0.0000000000  -0.0409000000
O  0.0000000000  0.0000000000  1.1362000000