16
charge=0, multiplicity=1, basis=def2-QZVPPD, AUX_BASIS_CORR=rimp2-def2-QZVPPD, SCF_ALGORITHM=GDM, xc_grid=000099000590, mem_total=7500, num_basis=738, num_pairs=242301, num_threads=2
C  -1.5625370400  -0.8292775500  -0.0007624200
C  -0.1786588100  -0.8104047900  -0.0004554700
C  0.2428311300  0.5529889000  -0.0003851400
C  -0.8888145700  1.3494864300  -0.0005951500
N  -1.9740712900  0.4915019800  -0.0008494400
H  -2.9418804000  0.7908014000  -0.0008036900
H  0.4596508900  -1.6890901300  -0.0000765200
H  1.2657892000  0.9178283100  -0.0001889100
C  -1.0511817200  2.8335967900  0.0000099300
H  -1.5945005500  3.1961892100  -0.8884635300
H  -1.5950346300  3.1951380300  0.8885905500
H  -0.0649213000  3.3138865900  0.0006051600
C  -2.5341849000  -1.9625880500  0.0003324800
H  -3.1872576500  -1.9533571300  0.8888578200
H  -3.1869981500  -1.9556741100  -0.8884220000
H  -1.9914907300  -2.9159494000  0.0016700500