20
charge=0, multiplicity=1, basis=def2-QZVPPD, AUX_BASIS_CORR=rimp2-def2-QZVPPD, SCF_ALGORITHM=GDM, xc_grid=000099000590, mem_total=15000, num_basis=840, num_pairs=326681, num_threads=4
C  -4.5584698000  0.2282043800  -0.0089355200
H  -4.1695936500  -0.8014748500  -0.0159524300
H  -4.1708998600  0.7396844200  -0.9035020700
H  -5.6539810500  0.1751387100  -0.1002105100
C  -4.1449114500  0.9680193900  1.2765083400
C  -2.5950685900  0.9980435400  1.3327019100
H  -2.2317261000  1.4799711700  0.4085386000
H  -2.2339068900  -0.0443211600  1.2909341000
C  -1.9604252300  1.6958642900  2.5395593600
H  -2.2455412200  1.2191053900  3.4882389200
H  -2.2445106500  2.7563289400  2.5987429400
C  -4.7171757200  2.3965411700  1.2349198000
H  -4.4892538500  2.9566569400  2.1532133400
H  -4.3090123900  2.9625092800  0.3831186500
H  -5.8121233300  2.3731339200  1.1271595800
C  -4.7204436200  0.2167489800  2.4905953200
H  -5.8158415700  0.1415332800  2.4174484100
H  -4.3180192600  -0.8062717300  2.5506867400
H  -4.4881590700  0.7276533600  3.4360158600
H  -0.8636583400  1.6566027800  2.4723035000