16
charge=0, multiplicity=1, basis=def2-QZVPPD, AUX_BASIS_CORR=rimp2-def2-QZVPPD, SCF_ALGORITHM=GDM, xc_grid=000099000590, mem_total=7500, num_basis=711, num_pairs=225350, num_threads=2
C  -0.3615267700  -0.1980464200  0.0641078500
C  1.1074469500  -0.1984815100  -0.0130495900
O  0.3714009700  1.0406524300  0.1238659800
H  -0.9579888900  -0.3449233700  -0.8423806000
H  -0.8468854000  -0.4968850000  0.9995728000
H  1.5566287600  -0.3217109400  -1.0079051500
C  1.9835281000  -0.5984283000  1.1474442300
H  2.1992642700  -1.6791274100  1.0689904400
H  1.4198993000  -0.4537417900  2.0837099500
C  3.3007325200  0.1879919200  1.2039733300
H  3.0689779100  1.2633648500  1.2576645300
H  3.8528389400  0.0379059800  0.2608482200
C  4.1848645500  -0.2135980800  2.3868443200
H  4.4503091300  -1.2811036600  2.3441766900
H  5.1207945300  0.3623074800  2.4011458800
H  3.6711307500  -0.0385659300  3.3442648400