15
charge=0, multiplicity=1, basis=def2-QZVPPD, AUX_BASIS_CORR=rimp2-def2-QZVPPD, SCF_ALGORITHM=GDM, xc_grid=000099000590, mem_total=7500, num_basis=645, num_pairs=188958, num_threads=2
C  -0.5097384500  -4.5740919300  4.8207825600
H  0.1239067500  -4.8152479100  5.6871696400
H  0.1552673500  -4.3816659700  3.9669132700
H  -1.1146731900  -5.4628256300  4.5898879300
C  -1.4019920100  -3.3553827500  5.1104839900
H  -2.0401414500  -3.1472334800  4.2395011300
H  -2.0876777500  -3.6103505800  5.9382821600
C  -0.6090168100  -2.1386919500  5.4960324000
H  0.0614893900  -2.2807641300  6.3515556300
C  -0.6195632400  -0.9270739300  4.9194769800
H  0.0386534700  -0.1635064700  5.3478183200
C  -1.4381661900  -0.4748264200  3.7466694800
H  -2.1167373200  0.3447490300  4.0347493200
H  -0.7918502100  -0.0751695100  2.9487181300
H  -2.0490306200  -1.2781894000  3.3160279700