13
charge=0, multiplicity=1, basis=def2-QZVPPD, AUX_BASIS_CORR=rimp2-def2-QZVPPD, SCF_ALGORITHM=GDM, xc_grid=000099000590, mem_total=3750, num_basis=549, num_pairs=142641, num_threads=1
C  -4.9215424400  -0.9353688500  0.0340814600
H  -4.5120618400  -1.9524497200  -0.0628053500
H  -4.6954754700  -0.3971828800  -0.8989326700
H  -6.0142954900  -1.0234444800  0.1093792500
C  -4.3362943900  -0.2092804100  1.2471345100
H  -4.7703602700  0.7987889100  1.3391755500
H  -4.6126034900  -0.7499470100  2.1695845600
C  -2.8146175000  -0.0773130700  1.1872291100
H  -2.5360974700  0.4833478600  0.2794911100
H  -2.3705671700  -1.0899205100  1.0798101700
N  -2.3089759600  0.6736764100  2.3464388000
H  -2.4956941200  0.1510757300  3.2059428700
H  -1.2938274100  0.7757656800  2.2881503600