16
charge=0, multiplicity=1, basis=def2-QZVPPD, AUX_BASIS_CORR=rimp2-def2-QZVPPD, SCF_ALGORITHM=GDM, xc_grid=000099000590, mem_total=7500, num_basis=714, num_pairs=224713, num_threads=2
C  -5.3093928700  -0.2003364500  0.0166488300
H  -4.9070866200  0.2534238000  -0.9096589000
H  -6.4111139400  -0.1023540200  -0.0092854900
C  -4.7596677000  0.5345814000  1.2311108100
H  -5.1696796900  1.5589880300  1.2220116400
H  -5.1535019000  0.0450525200  2.1377676300
C  -3.2290033300  0.5796184300  1.2781961300
H  -2.8419083900  1.1037052300  0.3885294900
H  -2.8255315500  -0.4429047200  1.2484275800
C  -2.7056853200  1.2828904900  2.5204949900
H  -3.0543531400  0.7506292000  3.4266906500
H  -3.1040707500  2.3158304900  2.5669097300
O  -4.9286664800  -1.5811831100  0.1113940900
H  -5.2126337400  -2.0286225300  -0.7025540600
O  -1.2721370200  1.2962485600  2.4584164200
H  -0.9413091800  1.7186450900  3.2683777800