4
charge=0, multiplicity=1, basis=def2-QZVPPD, AUX_BASIS_CORR=rimp2-def2-QZVPPD, SCF_ALGORITHM=GDM, xc_grid=000099000590, mem_total=3750, num_basis=195, num_pairs=19475, num_threads=1
C  -0.4993814200  -0.1487874800  0.2395165000
H  0.2135165400  -0.6739596600  -0.4437100200
H  -1.5839217100  -0.2621692000  -0.0090055000
O  -0.1220622600  0.4997148100  1.1867101900