15
charge=0, multiplicity=1, basis=def2-QZVPPD, AUX_BASIS_CORR=rimp2-def2-QZVPPD, SCF_ALGORITHM=GDM, xc_grid=000099000590, mem_total=7500, num_basis=705, num_pairs=226969, num_threads=2
C  -1.3487551300  -0.0477893200  -0.0150121300
C  0.0484185900  -0.0551477200  -0.0066358100
C  0.7408130200  1.1583015000  -0.0156067500
C  0.0399630000  2.3665711100  -0.0306655200
C  -1.3627466900  2.3900428200  -0.0346109900
C  -2.0440648500  1.1634261800  -0.0298434200
H  -1.9006517500  -0.9893660500  -0.0143076000
H  0.5939156200  -0.9999418300  0.0018222600
H  1.8321363400  1.1650937200  -0.0153132100
H  0.5906411900  3.3101001200  -0.0422755400
H  -3.1365531000  1.1584879200  -0.0406594300
C  -2.1175894600  3.6963113800  -0.0185323200
H  -3.0832943000  3.6093765400  -0.5350731700
H  -2.3275911500  4.0184641900  1.0141498600
H  -1.5425313500  4.4992185300  -0.4997421500