16
charge=0, multiplicity=1, basis=def2-QZVPPD, AUX_BASIS_CORR=rimp2-def2-QZVPPD, SCF_ALGORITHM=GDM, xc_grid=000099000590, mem_total=7500, num_basis=738, num_pairs=239643, num_threads=2
C  -5.7611964000  -0.1122497600  -0.1592148600
H  -5.4417680400  -1.1389100200  -0.3860822500
H  -5.2798172800  0.5599420200  -0.8832967700
H  -6.8482187200  -0.0563909300  -0.3096397100
C  -5.3966943500  0.2771379100  1.2808877900
H  -5.7262038200  1.3049708400  1.4937928000
H  -5.9341419600  -0.3818161900  1.9824942900
C  -3.9110028700  0.1935581900  1.5712945500
C  -3.1485761300  1.2596043600  1.8993769700
H  -3.6575594900  2.2272984300  1.9584491900
C  -1.6857238900  1.2517149700  2.1928769800
H  -1.1480653800  1.9175114300  1.4986209500
H  -1.4920018000  1.6404560800  3.2056352600
H  -1.2524805900  0.2462757200  2.1170463900
C  -3.3218753600  -1.1090277400  1.4735687800
N  -2.8807241700  -2.1859341400  1.3863570300