6
charge=0, multiplicity=1, basis=def2-QZVPPD, AUX_BASIS_CORR=rimp2-def2-QZVPPD, SCF_ALGORITHM=GDM, xc_grid=000099000590, mem_total=3750, num_basis=261, num_pairs=34660, num_threads=1
C  -1.4132872300  -0.0448847200  0.0065797200
H  -1.0364432000  -1.0750377500  0.0271267100
H  -1.0506877700  0.4373683300  -0.9186758500
H  -2.5168917000  -0.0809975100  -0.0207260300
O  -0.9186550100  0.5952016600  1.1839702200
H  -1.2409825000  1.5113338900  1.1828024400