16
charge=0, multiplicity=1, basis=def2-QZVPPD, AUX_BASIS_CORR=rimp2-def2-QZVPPD, SCF_ALGORITHM=GDM, xc_grid=000099000590, mem_total=7500, num_basis=678, num_pairs=208388, num_threads=2
N  -0.5280928400  0.0815367300  0.0683037900
H  -0.2363258600  0.4685311900  -0.8317161500
C  -0.1642013800  -1.3391986500  0.1170529200
H  -0.3987549500  -1.7708612900  -0.8681823900
H  0.9278969400  -1.4850540700  0.2781906400
C  -0.9365303900  -2.1037328300  1.1922876300
H  -2.0190934500  -1.9978618600  1.0353980100
H  -0.6804859300  -3.1727193500  1.1623332200
H  -0.7011203100  -1.7383744600  2.2017919200
C  0.0594110000  0.8947616900  1.1349139800
H  -0.3546360900  0.5551911900  2.0972810600
H  1.1630253900  0.7590220400  1.2054661500
C  -0.2658720900  2.3718509500  0.9382362000
H  -1.3529792700  2.5291954100  0.9090023300
H  0.1533989900  2.9772937400  1.7539360800
H  0.1570152600  2.7490761600  -0.0061829700