14
charge=0, multiplicity=1, basis=def2-QZVPPD, AUX_BASIS_CORR=rimp2-def2-QZVPPD, SCF_ALGORITHM=GDM, xc_grid=000099000590, mem_total=7500, num_basis=672, num_pairs=206914, num_threads=2
C  -1.9621254500  -1.3046225800  -1.2052727000
C  -1.3456862900  -1.8582225700  -0.0809981000
C  -1.5286621200  -1.2204359400  1.1454672200
C  -2.3125281900  -0.0681466000  1.1927453200
C  -2.8928556100  0.4191347100  0.0113932200
N  -2.7153425500  -0.1965491200  -1.1751833100
H  -1.0663023500  -1.6120430300  2.0529572000
H  -1.8449996200  -1.7738927200  -2.1869706900
H  -0.7407612800  -2.7608169400  -0.1691022500
H  -2.4738528700  0.4561695700  2.1362203000
C  -3.7558039600  1.6530639800  0.0035794300
H  -3.6802345000  2.2098716600  0.9463347800
H  -3.4695563800  2.3099279200  -0.8288397500
H  -4.8109634200  1.3798185200  -0.1521136900