11
charge=0, multiplicity=1, basis=def2-QZVPPD, AUX_BASIS_CORR=rimp2-def2-QZVPPD, SCF_ALGORITHM=GDM, xc_grid=000099000590, mem_total=3750, num_basis=519, num_pairs=128669, num_threads=1
C  0.8456990400  0.1271376100  0.1394615700
O  2.0598985100  0.1327923600  0.1529609400
C  -0.0371166700  -1.0875366700  -0.0427503300
H  -0.6468071000  -1.1971947500  0.8684295700
H  0.6285551400  -1.9566883200  -0.1087302700
C  -0.9567816500  -0.9978179800  -1.2701283600
H  -1.5622877200  -1.9101605800  -1.3555918100
H  -1.6365646500  -0.1399983600  -1.1943754200
H  -0.3731862100  -0.8930068200  -2.1951905300
O  0.1095403800  1.2703929500  0.2989911300
H  0.7632443300  1.9927760800  0.4058861900