14
charge=0, multiplicity=1, basis=def2-QZVPPD, AUX_BASIS_CORR=rimp2-def2-QZVPPD, SCF_ALGORITHM=GDM, xc_grid=000099000590, mem_total=7500, num_basis=648, num_pairs=186773, num_threads=2
C  0.0572829600  0.4618040100  0.5737343600
H  0.6427836600  -0.4667798400  0.5390641300
H  0.6761874600  1.2454359300  1.0292219500
H  -0.1575757300  0.7721852400  -0.4573500700
C  -1.2299352800  0.2491465500  1.3649286000
H  -1.0157909700  -0.0955862000  2.3900965600
H  -1.8568610000  -0.5389356000  0.9193925300
C  -2.0719656300  1.5043239100  1.4822028600
O  -1.7516111900  2.6157490500  1.1105258400
O  -3.2644731600  1.2291370500  2.0819028900
C  -4.1350126300  2.3684293300  2.2586742000
H  -5.0336866100  1.9762867900  2.7450390800
H  -3.6536090200  3.1279813100  2.8885990000
H  -4.3842603100  2.8172984600  1.2882620700