26
charge=0, multiplicity=1, basis=def2-QZVPPD, mem_total=30000, AUX_BASIS_CORR=rimp2-def2-QZVPPD, SCF_ALGORITHM=GDM, xc_grid=000099000590, num_basis=1161, num_pairs=476115, num_threads=8
C  2.6484078000  -2.8401350100  -1.2154497400
O  1.4202125000  -2.9097438400  -1.1828896500
N  3.3805139600  -2.8769467600  -2.3947997500
H  4.3690082000  -3.0984018100  -2.3185838100
N  3.4326219600  -2.7181120000  -0.0755330100
H  4.3827424300  -2.3813839000  -0.2034572800
C  2.7408995800  -3.1902168000  -3.6658532300
H  2.8540862200  -4.2637875600  -3.9099609300
H  1.6674423500  -3.0101469400  -3.5188884700
C  2.8273244700  -2.4655181700  1.2256604600
H  2.8078305300  -1.3815382300  1.4486662300
H  1.7813844200  -2.7904266500  1.1439042400
C  3.5460928300  -3.2118300200  2.3522567800
H  4.6095391200  -2.9160519100  2.3700204900
H  3.5282118800  -4.2903277800  2.1294066400
C  3.2861298900  -2.3384348400  -4.8152132300
H  4.3765753800  -2.4886216700  -4.8997122200
H  3.1380064200  -1.2753348900  -4.5681292300
C  2.6189954300  -2.6716316300  -6.1515223600
H  3.0282126500  -2.0578845100  -6.9659345200
H  2.7695501200  -3.7275180900  -6.4223376200
H  1.5345970200  -2.4914738500  -6.1099537500
C  2.9176525300  -2.9408907200  3.7208927900
H  3.4510187800  -3.4770209600  4.5179920000
H  2.9407937900  -1.8686853000  3.9674812300
H  1.8664488900  -3.2639232300  3.7464022000