16
charge=0, multiplicity=1, basis=def2-QZVPPD, AUX_BASIS_CORR=rimp2-def2-QZVPPD, SCF_ALGORITHM=GDM, xc_grid=000099000590, mem_total=7500, num_basis=714, num_pairs=211786, num_threads=2
C  -5.7344548100  0.8494753000  -0.0007590000
H  -5.3880131400  1.3896214600  0.8906150200
H  -5.3875564600  1.3875682900  -0.8931947400
H  -6.8332647200  0.8518046200  -0.0010327100
C  -5.2334055000  -0.5867906200  0.0010118200
H  -5.5793875100  -1.1326992400  -0.8947232700
H  -5.5800135800  -1.1307048200  0.8977207300
O  -3.8115256300  -0.5122953400  0.0014100900
O  -3.3517528200  -1.9284585900  0.0027443900
C  -1.9298080600  -1.8540880700  0.0021408100
H  -1.5832109200  -1.3081710700  0.8976270600
H  -1.5838780300  -1.3102124400  -0.8948420400
C  -1.4288644700  -3.2903875300  0.0035942900
H  -1.7758582600  -3.8304942000  -0.8876084500
H  -0.3300535900  -3.2927888800  0.0032421400
H  -1.7752846800  -3.8284962800  0.8962266600