18
charge=0, multiplicity=1, basis=def2-QZVPPD, AUX_BASIS_CORR=rimp2-def2-QZVPPD, SCF_ALGORITHM=GDM, xc_grid=000099000590, mem_total=15000, num_basis=840, num_pairs=283847, num_threads=4
C  -6.1059287700  0.1856256400  -0.0814315600
H  -5.8417530500  -0.8811470400  -0.0219747900
H  -5.6487573500  0.5892422800  -0.9977807100
H  -7.1965467000  0.2516267900  -0.1978092500
C  -5.6371085900  0.9469422700  1.1604166600
H  -5.9472696000  2.0009630400  1.0983980700
H  -6.1250679200  0.5436456700  2.0602800400
C  -4.1209924400  0.8805467700  1.3397001200
H  -3.5951003600  1.3012522600  0.4662467100
H  -3.7738657300  -0.1649429900  1.4063477800
C  -3.6212298900  1.6019309800  2.5693301700
O  -2.2381589900  1.5270611500  2.6222878100
O  -4.2937226900  2.1657612100  3.4022110200
C  -1.6014939300  2.1300989900  3.6957522400
H  -2.2727177300  2.6193055900  4.4014177400
C  -0.2745351900  2.0808149800  3.8001291800
H  0.3429924600  1.5744515300  3.0591237300
H  0.2139173900  2.5571599800  4.6473565700