4
charge=0, multiplicity=1, basis=def2-QZVPPD, mem_total=3750, AUX_BASIS_CORR=rimp2-def2-QZVPPD, SCF_ALGORITHM=GDM, xc_grid=000099000590, num_basis=162, num_pairs=13492, num_threads=1
N  -1.0437842600  -0.0948722800  0.0000000000
H  -0.6557010400  -1.0404794000  0.0000000000
H  -0.6556774500  0.3779675700  0.8189211600
H  -0.6556774500  0.3779675700  -0.8189211600