20
charge=0, multiplicity=1, basis=def2-QZVPPD, AUX_BASIS_CORR=rimp2-def2-QZVPPD, SCF_ALGORITHM=GDM, xc_grid=000099000590, mem_total=15000, num_basis=906, num_pairs=328482, num_threads=4
C  -5.3885372900  -0.0844422400  0.0101511600
H  -5.1822225800  -1.1641006400  -0.0445496000
H  -4.9996181700  0.3740844600  -0.9115266700
H  -6.4798644900  0.0459531100  0.0119443900
C  -4.7491345900  0.5399462000  1.2525539900
H  -5.0008061400  1.6127491300  1.2990932900
H  -5.1823349300  0.0866584600  2.1597818700
C  -3.2250477400  0.3791748000  1.2899138800
H  -2.7909609400  0.8317553800  0.3809838100
H  -2.9731972400  -0.6949603000  1.2448083600
C  -2.5811391700  1.0033613900  2.5336633100
H  -2.9995794600  0.5476146400  3.4450870200
H  -2.8187885000  2.0788950000  2.5819945700
C  -1.0695336100  0.8264820300  2.5481660200
H  -0.6006665700  1.3330387300  1.6862992200
H  -0.7928463200  -0.2371543700  2.5089967500
O  -0.5010845800  1.3421538000  3.7780126000
C  0.2571614000  2.4626391900  3.6965148600
H  0.3669831700  2.8330376500  2.6496648900
O  0.7566478600  2.9845402800  4.6588300400