19
charge=0, multiplicity=1, basis=def2-QZVPPD, AUX_BASIS_CORR=rimp2-def2-QZVPPD, SCF_ALGORITHM=GDM, xc_grid=000099000590, mem_total=15000, num_basis=840, num_pairs=317427, num_threads=4
C  -0.8501271100  0.4529171400  0.3733453500
O  0.5840441400  0.3686154400  0.2294112600
C  1.0774624000  1.5868370500  -0.3486738700
C  -0.0236643800  2.6404599500  -0.1679175500
C  -1.2810416800  1.7611139200  -0.2951244200
H  -1.3063923700  -0.4370267600  -0.0882726900
H  -1.0976174800  0.4466092900  1.4498430000
H  2.0215844400  1.8419579600  0.1550633600
H  1.2893756600  1.4366119400  -1.4273530700
H  0.0326731700  3.0294477400  0.8647323700
H  -2.1674119800  2.2064186200  0.1767779400
H  -1.5101657300  1.5982810100  -1.3606682000
C  0.0371420200  3.8153241500  -1.1474037000
H  -0.8641617300  4.4360566100  -1.0149984600
H  -0.0124319200  3.4198233500  -2.1771499100
C  1.2836575700  4.6927752500  -0.9913177600
H  2.2057702500  4.1264338200  -1.1868715200
H  1.2626913600  5.5408759400  -1.6904806100
H  1.3551771800  5.1030830900  0.0272844000