3
charge=0, multiplicity=1, basis=def2-QZVPPD, AUX_BASIS_CORR=rimp2-def2-QZVPPD, SCF_ALGORITHM=GDM, xc_grid=000099000590, mem_total=3750, num_basis=195, num_pairs=19388, num_threads=1
C  -1.2736741300  0.1761517700  0.2167319900
O  -0.1024099400  0.1761517700  0.2173319000
O  -2.4450544100  0.1761517700  0.2173319400