19
charge=0, multiplicity=1, basis=def2-QZVPPD, AUX_BASIS_CORR=rimp2-def2-QZVPPD, SCF_ALGORITHM=GDM, xc_grid=000099000590, mem_total=15000, num_basis=843, num_pairs=312450, num_threads=4
C  -5.8098365100  -0.3051513500  -0.1638047900
H  -5.4696293000  -1.3520668500  -0.1435671000
H  -5.4993102200  0.1343960400  -1.1255542600
H  -6.9085302900  -0.3149452700  -0.1669585200
C  -5.2702288500  0.4797217400  1.0353982100
H  -5.6092957600  1.5280300200  0.9848617900
H  -5.6687317500  0.0569685400  1.9687766600
C  -3.7422064100  0.4724860000  1.1304947200
H  -3.3891132000  -0.5777651000  1.1978841000
C  -3.2242590800  1.2128474500  2.3709379100
H  -3.5764336000  2.2616755500  2.3020234400
C  -1.7030781900  1.1948691400  2.4717251600
H  -1.2505663900  1.6628975100  1.5883482600
H  -1.3675627300  1.7500780500  3.3620282000
H  -1.3372655300  0.1602713900  2.5501143900
O  -3.8336186300  0.5651315000  3.5036204600
H  -3.4251627800  0.9370022500  4.3032624200
O  -3.1287516300  1.1229111800  0.0028909400
H  -3.4569149800  0.6832132100  -0.7992762400