12
charge=0, multiplicity=1, basis=def2-QZVPPD, AUX_BASIS_CORR=rimp2-def2-QZVPPD, SCF_ALGORITHM=GDM, xc_grid=000099000590, mem_total=3750, num_basis=576, num_pairs=155493, num_threads=1
C  1.6789232200  -0.2957387600  -0.0410956000
C  0.5514739200  0.4972404300  0.0289611600
N  -0.5210064900  -0.3759011900  0.0001328400
H  -1.5009520800  -0.1194404700  0.0340115000
H  -0.6409676800  -2.5247335500  -0.1250039300
H  0.4164822500  1.5711601600  0.0949910000
C  3.1144742000  0.1185442300  -0.0448060900
H  3.6492939200  -0.3095602200  0.8160172300
H  3.6232594900  -0.2390444500  -0.9521375100
H  3.2128746200  1.2113354000  -0.0023106800
C  -0.0097639300  -1.6414227600  -0.0854376900
N  1.3101221800  -1.6282917900  -0.1120601600