3
charge=0, multiplicity=1, basis=def2-QZVPPD, AUX_BASIS_CORR=rimp2-def2-QZVPPD, SCF_ALGORITHM=GDM, xc_grid=000099000590, mem_total=3750, num_basis=159, num_pairs=13024, num_threads=1
C  -1.9803966400  0.1219512300  0.0000000000
H  -3.0555491200  0.1219512300  0.0000000000
N  -0.8224140200  0.1219512300  0.0000000000