18
charge=0, multiplicity=1, basis=def2-QZVPPD, AUX_BASIS_CORR=rimp2-def2-QZVPPD, SCF_ALGORITHM=GDM, xc_grid=000099000590, mem_total=15000, num_basis=807, num_pairs=294827, num_threads=4
N  0.2460360500  -0.0019613500  -0.0963981800
C  -0.0389801900  -1.3859288500  0.2703449000
H  -0.1091597100  -1.9574037100  -0.6675879600
H  0.8240694200  -1.7936233500  0.8260156500
C  -1.3174920900  -1.5755879600  1.0902343200
H  -2.1955296700  -1.2051587800  0.5433941200
H  -1.4689584800  -2.6433170000  1.3053843900
H  -1.2641224900  -1.0479925200  2.0522574900
C  0.6212860300  0.9698921400  0.9378473800
H  0.9665982300  0.4009906200  1.8142951300
H  1.4744032200  1.5455471100  0.5490417100
C  -0.5039885100  1.9341500000  1.3224525700
H  -1.3759748900  1.4029170800  1.7275435500
H  -0.1480959500  2.6398472900  2.0871421400
H  -0.8216744900  2.5123052200  0.4457924500
C  0.2951959100  0.3867459400  -1.4052112700
H  0.0347145600  -0.4459511400  -2.1004950100
O  0.5903315900  1.5105573600  -1.7965991900