19
charge=0, multiplicity=1, basis=def2-QZVPPD, AUX_BASIS_CORR=rimp2-def2-QZVPPD, SCF_ALGORITHM=GDM, xc_grid=000099000590, mem_total=15000, num_basis=837, num_pairs=328094, num_threads=4
C  -2.7664507500  -1.7321473600  0.2297513500
C  -1.3230322600  -2.1439512100  0.1539024100
C  -0.6733865100  -0.6888190900  0.2033614900
C  -1.2441151600  0.2707752200  1.2845546500
C  -2.8379188900  0.2878226100  1.4215464200
C  -3.0929700800  -1.1894945900  1.4441728400
H  0.4158867400  -0.7820095400  0.3496441200
H  -0.9948206800  -2.7342939200  1.0205762700
H  -1.0060009600  -2.6641230400  -0.7630353000
H  -3.0327572600  -1.0985497900  -0.6318214000
H  -0.8253088300  0.0009215400  2.2666167300
H  -0.8981917900  1.2949955600  1.0722456400
H  -3.1381336200  0.8592565500  2.3149607300
H  -3.2651294600  0.7674608500  0.5281798600
H  -0.8183894400  -0.2339032800  -0.7900222900
C  -2.9044601800  -1.9243537100  2.7423019200
H  -3.8477045500  -1.8956614400  3.3146359200
H  -2.6608857300  -2.9834349600  2.5788542300
H  -2.1368472400  -1.4773735100  3.3962984500