15
charge=0, multiplicity=1, basis=def2-QZVPPD, AUX_BASIS_CORR=rimp2-def2-QZVPPD, SCF_ALGORITHM=GDM, xc_grid=000099000590, mem_total=7500, num_basis=661, num_pairs=187752, num_threads=2
C  0.9119118500  0.4214735600  0.0013670400
H  1.2191610100  0.9914837600  -0.8889693400
H  1.2209254500  0.9893294200  0.8924723400
C  1.5493520800  -0.9658660900  -0.0009713200
H  1.2515806700  -1.5386025400  -0.8904694500
H  2.6454802300  -0.8809134200  -0.0020660700
H  1.2535774200  -1.5407697100  0.8877938900
C  -1.3770624400  2.0384547400  0.0031504400
H  -0.9433198200  2.5188439800  -0.8872375300
H  -0.9438440100  2.5184808500  0.8939904900
C  -2.8975657300  2.1768636200  0.0027251100
H  -3.3397511000  1.7055091300  0.8915463000
H  -3.1829712800  3.2386578100  0.0030783700
H  -3.3391487800  1.7062160800  -0.8867648000
S  -0.9099965400  0.2712840300  0.0027595300