11
charge=0, multiplicity=1, basis=def2-QZVPPD, AUX_BASIS_CORR=rimp2-def2-QZVPPD, SCF_ALGORITHM=GDM, xc_grid=000099000590, mem_total=3750, num_basis=573, num_pairs=129740, num_threads=1
C  -5.4894152100  -0.5379703500  0.3584655800
H  -6.4075342100  -0.8167871600  -0.1141989000
C  -4.4403567500  -0.2198294100  0.8984503600
C  -3.2809266200  0.1307993400  1.4954588100
C  -2.2228956500  0.4500274800  2.0413579300
C  -1.0655759000  0.7966104900  2.6414500600
C  -0.0154999900  1.1092037600  3.1891119800
C  1.2256172800  1.4775747800  3.8373324500
H  1.8363140400  2.1228608100  3.1868631500
H  1.0360942300  2.0257724800  4.7733535200
H  1.8232303000  0.5863016300  4.0843515500