12
charge=0, multiplicity=1, basis=def2-QZVPPD, AUX_BASIS_CORR=rimp2-def2-QZVPPD, SCF_ALGORITHM=GDM, xc_grid=000099000590, mem_total=3750, num_basis=576, num_pairs=156272, num_threads=1
C  1.2297717900  -1.6323908500  -0.1398154400
C  1.7153750700  -0.3029051300  -0.0365140000
C  0.5614043300  0.4684231300  -0.0178291300
N  -0.4882559600  -0.3961076500  -0.1056567500
H  -1.4760245400  -0.1734630100  -0.1203910500
H  1.8024269800  -2.5555353400  -0.1856411300
H  0.4173485700  1.5424114800  0.0499792300
N  -0.1073369700  -1.6888145500  -0.1820579700
C  3.1372594200  0.1649304600  0.0366124200
H  3.6518661400  -0.2400357300  0.9210540400
H  3.7130804700  -0.1505475000  -0.8464248500
H  3.1935893000  1.2601911200  0.0938356800