13
charge=0, multiplicity=1, basis=def2-QZVPPD, AUX_BASIS_CORR=rimp2-def2-QZVPPD, SCF_ALGORITHM=GDM, xc_grid=000099000590, mem_total=3750, num_basis=609, num_pairs=173988, num_threads=1
C  -1.2819117300  -1.4983300800  0.0000769600
C  0.0991986100  -1.4888046900  0.0003603700
C  0.5144467300  -0.1248825900  -0.0001759900
C  -0.6202627300  0.6711438800  -0.0007907400
N  -1.7034033300  -0.1848746200  -0.0007549400
H  -2.6712671800  0.1118854300  -0.0011375300
H  -1.9925086000  -2.3174408800  0.0002713400
H  0.7392337800  -2.3651843400  0.0008743500
H  1.5361557400  0.2431747300  0.0001455600
C  -0.7817257700  2.1557207000  -0.0002890800
H  -1.3244705800  2.5174971200  -0.8890952600
H  -1.3257767400  2.5162962800  0.8882038800
H  0.2043416200  2.6360888600  0.0007953400