18
charge=0, multiplicity=1, basis=def2-QZVPPD, AUX_BASIS_CORR=rimp2-def2-QZVPPD, SCF_ALGORITHM=GDM, xc_grid=000099000590, mem_total=7500, num_basis=777, num_pairs=258185, num_threads=2
C  -5.3804608400  -0.2595548900  -0.0044228000
H  -5.0459080800  -1.3072584500  -0.0464861200
H  -5.0483789900  0.2305270700  -0.9323146500
H  -6.4797907700  -0.2611855600  -0.0038154100
C  -4.8194403400  0.4518210000  1.2291643000
H  -5.1985002000  1.4873576200  1.2629318100
H  -5.1969752100  -0.0385788600  2.1422669000
C  -3.2873354700  0.4759772100  1.2692703200
H  -2.9099977200  0.9664577400  0.3544842600
H  -2.9088403700  -0.5612576600  1.2353708400
C  -2.7234045200  1.1878636500  2.5029520300
H  -3.0881724700  0.6984543400  3.4209450500
H  -3.0859279800  2.2284855300  2.5367888100
C  -1.2030148200  1.2044643600  2.5353130700
H  -0.8135252100  1.7099823200  1.6303104500
H  -0.8155234900  0.1669814700  2.5304618300
O  -0.7867806900  1.8961793600  3.7220823500
H  0.1846164900  1.9057248500  3.7384955200