29
charge=0, multiplicity=1, basis=def2-QZVPPD, mem_total=30000, AUX_BASIS_CORR=rimp2-def2-QZVPPD, SCF_ALGORITHM=GDM, xc_grid=000099000590, num_basis=1227, num_pairs=651066, num_threads=8
C  -6.1428586900  -0.6536745100  -0.0450248900
H  -5.7493411400  -1.6532994400  -0.2794150800
H  -5.9552563500  -0.0028345500  -0.9095331500
H  -7.2336536100  -0.7505767600  0.0615203300
C  -5.5451517300  -0.0755964900  1.2562835200
C  -3.9503328900  -0.0775817800  1.2110821000
C  -3.3841269500  0.7826782300  2.3794285200
H  -3.9087605800  0.5156449600  3.3109997100
H  -3.6295049600  1.8382699700  2.1848978100
C  -1.8760545200  0.6794038900  2.6400629000
H  -1.2794095300  0.9267649200  1.7497796900
H  -1.5794947500  -0.3249822900  2.9723725600
H  -1.5817253000  1.3843489000  3.4311047700
C  -6.1066209100  1.3530479100  1.4254500100
H  -5.7246971400  2.0450476400  0.6606255300
H  -7.2026146300  1.3329161100  1.3273513600
H  -5.8757069100  1.7760753000  2.4126392600
C  -6.0761330800  -0.9291418900  2.4281331400
H  -7.1689917800  -0.8210783700  2.4995127100
H  -5.8616156500  -1.9977589900  2.2894158100
H  -5.6552965500  -0.6213897100  3.3961105500
C  -3.4089419400  -1.5184173500  1.3236852900
H  -2.3303823300  -1.5427622000  1.1137649800
H  -3.5583844200  -1.9413556200  2.3272680900
H  -3.8903654500  -2.1906407100  0.5993632800
C  -3.4455265100  0.5125546400  -0.1227553000
H  -3.8687591600  1.5077907400  -0.3229475000
H  -2.3518368300  0.6200992500  -0.1046876500
H  -3.6889813500  -0.1373647800  -0.9739061200