12
charge=0, multiplicity=1, basis=def2-QZVPPD, AUX_BASIS_CORR=rimp2-def2-QZVPPD, SCF_ALGORITHM=GDM, xc_grid=000099000590, mem_total=3750, num_basis=549, num_pairs=141891, num_threads=1
C  0.7033820700  0.4107261900  -0.4335813900
O  1.3814908300  0.4264108700  -1.4557131100
C  -0.2612126200  -0.7270231400  -0.0937799700
H  -1.0401334500  -0.3758478600  0.6016099200
H  0.3278595800  -1.4808338500  0.4563878700
N  0.7809517300  1.4086625900  0.5026368800
H  0.2367318400  1.3953641200  1.3556688600
H  1.4527393200  2.1545878200  0.3579920700
C  -0.8804200400  -1.3587227800  -1.3403563500
H  -1.4691060100  -2.2474728700  -1.0753531900
H  -1.5432597700  -0.6501753800  -1.8561333900
H  -0.0939791100  -1.6523133800  -2.0464403900