12
charge=0, multiplicity=1, basis=def2-QZVPPD, AUX_BASIS_CORR=rimp2-def2-QZVPPD, SCF_ALGORITHM=GDM, xc_grid=000099000590, mem_total=3750, num_basis=546, num_pairs=140183, num_threads=1
C  -4.0412123000  -0.4992964500  0.0030558600
H  -3.6961758100  -1.5434113800  -0.0293161700
H  -3.6973056800  -0.0041822800  -0.9172722700
H  -5.1393180400  -0.5108410800  -0.0153516400
C  -3.5262540100  0.2202062900  1.2498223500
H  -3.9025342700  1.2536519500  1.2773464700
H  -3.9026439000  -0.2728944900  2.1583330000
C  -1.9839337300  0.2491135000  1.3006600300
H  -1.5827053900  -0.7775666300  1.2899924100
H  -1.5825938400  0.7519271900  0.4056766200
C  -1.4655360700  0.9322551400  2.4824200200
N  -1.0761185600  1.4808549900  3.4309358700