18
charge=0, multiplicity=1, basis=def2-QZVPPD, AUX_BASIS_CORR=rimp2-def2-QZVPPD, SCF_ALGORITHM=GDM, xc_grid=000099000590, mem_total=15000, num_basis=840, num_pairs=302684, num_threads=4
C  -6.4381764600  0.0215126300  0.5315287000
H  -6.5399881500  -0.0866928700  -0.5600377200
H  -6.4444194000  1.1024186300  0.7413470000
H  -7.2768920800  -0.4767753700  1.0293246000
C  -5.1271599800  -0.5799235200  0.9765783300
C  -3.8593728900  0.1657557400  0.5284722900
H  -3.0477202600  -0.5670867600  0.4400634400
H  -4.0286696100  0.6842192700  -0.4236889900
C  -3.5271534300  1.2258223200  1.5928097100
C  -2.5800129300  0.7801854300  2.6889835400
H  -1.6143300700  0.5475512400  2.2036931600
H  -2.9461029700  -0.1963262700  3.0535922000
C  -2.4055023200  1.7885683800  3.8188404100
H  -3.3627071000  1.9914260000  4.3171821400
H  -1.7002669300  1.4081175000  4.5699814800
H  -2.0256149300  2.7455623800  3.4389390900
O  -5.0512686800  -1.5713605400  1.6817129000
O  -4.0403229600  2.3310882900  1.5554576000