13
charge=0, multiplicity=1, basis=def2-QZVPPD, AUX_BASIS_CORR=rimp2-def2-QZVPPD, SCF_ALGORITHM=GDM, xc_grid=000099000590, mem_total=3750, num_basis=612, num_pairs=168756, num_threads=1
C  -4.2698945400  1.4127454200  1.4746284300
H  -4.7271573100  1.0644242100  2.4136083100
C  -2.7751473400  1.0753994900  1.4999336200
H  -2.2942208400  1.4078076100  0.5642489200
H  -2.2849219600  1.6189205700  2.3209240300
N  -2.5090320900  -0.3344069700  1.6991888500
C  -2.7510939400  -1.3849530700  1.1504007200
O  -2.9106918900  -2.4766110100  0.7222812900
H  -4.7496548500  0.8459042600  0.6607182000
C  -4.5143214800  2.9118397000  1.2877297500
H  -4.0578922500  3.4974510100  2.0997165400
H  -4.0927889400  3.2724647100  0.3376678400
H  -5.5893549200  3.1366373500  1.2804346800