13
charge=0, multiplicity=1, basis=def2-QZVPPD, AUX_BASIS_CORR=rimp2-def2-QZVPPD, SCF_ALGORITHM=GDM, xc_grid=000099000590, mem_total=3750, num_basis=579, num_pairs=153903, num_threads=1
C  -4.1103484200  0.4514571900  0.0595492700
H  -3.9313062500  -0.6058304400  -0.1883556200
H  -3.9183947300  1.0431698000  -0.8483932200
H  -5.1755264700  0.5590860900  0.3073393400
C  -3.2250545700  0.9097544700  1.2190963100
H  -3.4362516800  1.9611905300  1.4665702700
H  -3.4510649600  0.3269845700  2.1251989600
C  -1.7223187500  0.7672585400  0.8976954300
H  -1.4884944800  1.3388917700  -0.0173954000
H  -1.4961340400  -0.2872067800  0.6630255000
C  -0.8500507300  1.2173247800  1.9758062400
C  -0.1430188600  1.6063351700  2.8796932700
H  0.4856975400  1.9441842100  3.6765851400