19
charge=0, multiplicity=1, basis=def2-QZVPPD, AUX_BASIS_CORR=rimp2-def2-QZVPPD, SCF_ALGORITHM=GDM, xc_grid=000099000590, mem_total=15000, num_basis=837, num_pairs=316696, num_threads=4
C  -2.8284851400  -1.8823677600  -0.0039822800
C  -1.2955171600  -1.8728431400  -0.0693699800
C  -0.7204016900  -0.5048453100  0.1884133700
C  -1.4120107400  0.5276880800  0.6995495500
C  -2.8626276700  0.3853338500  1.1054125900
C  -3.3229951700  -1.0749512100  1.2004719400
H  -0.8820159100  -2.5915625900  0.6634880400
H  -0.9544560200  -2.2362411000  -1.0532519700
H  -3.2343242900  -1.4364238000  -0.9277205400
H  -3.2027314500  -2.9165630600  0.0397303300
H  -3.0197338000  0.8969340000  2.0711128900
H  -3.4931092900  0.9367900100  0.3821347600
H  -2.9204648500  -1.5228268000  2.1248744400
H  -4.4199897400  -1.1225881000  1.2786575600
H  0.3339793700  -0.3554875800  -0.0681911600
C  -0.7978866600  1.8858789900  0.8984169300
H  -0.8185517600  2.1811021200  1.9608662000
H  0.2446256500  1.9162679200  0.5538350300
H  -1.3616713400  2.6599290900  0.3505185600