21
charge=0, multiplicity=1, basis=def2-QZVPPD, AUX_BASIS_CORR=rimp2-def2-QZVPPD, SCF_ALGORITHM=GDM, xc_grid=000099000590, mem_total=15000, num_basis=903, num_pairs=329334, num_threads=4
C  -5.9062990700  0.6476488400  0.1159437100
H  -5.5230510300  -0.3815987900  0.0444482000
H  -5.6802636200  1.1506979400  -0.8365941500
H  -7.0000396600  0.5898710400  0.2105468100
C  -5.2780130300  1.3908950300  1.2973875900
H  -5.7093533500  2.4041223200  1.3675344600
H  -5.5469712400  0.8817867500  2.2385837400
C  -3.7521957900  1.4991059700  1.2022330400
H  -3.4818628200  2.0166898900  0.2645772900
H  -3.3201462700  0.4856339900  1.1228697200
C  -3.1132897900  2.2300625100  2.3869666800
H  -3.3692263800  1.7100762700  3.3254556300
H  -3.5470523100  3.2418858900  2.4709706200
C  -1.5814862900  2.3426598600  2.2775856300
H  -1.3375242800  2.8599791100  1.3313382100
H  -1.1369422400  1.3360606300  2.2079077900
C  -0.9614040700  3.0896162900  3.4219977200
H  -1.3115687900  4.1190247300  3.5656396200
C  -0.0483950200  2.5976790200  4.2644104400
H  0.3579239800  3.1937126100  5.0827315800
H  0.3296621100  1.5772574300  4.1633406600