21
charge=0, multiplicity=1, basis=def2-QZVPPD, AUX_BASIS_CORR=rimp2-def2-QZVPPD, SCF_ALGORITHM=GDM, xc_grid=000099000590, mem_total=15000, num_basis=903, num_pairs=378151, num_threads=4
C  -2.9055841300  -2.1778670600  -0.0727944300
C  -1.3708275800  -2.2025054100  -0.0604567100
C  -0.7889946500  -0.7820082200  -0.0018151200
C  -1.3291825800  0.0428308900  1.1864591100
C  -2.8729586200  0.0293758800  1.1763382200
C  -3.4604984400  -1.3890234800  1.1214721000
H  0.3115741700  -0.8217321500  0.0399464800
H  -1.0226688700  -2.7875806100  0.8078244100
H  -0.9901570700  -2.7246749900  -0.9524801100
H  -3.2515899800  -1.7057952400  -1.0099317500
H  -3.3062322300  -3.2038891700  -0.0743074300
H  -3.2573523200  0.5685046200  2.0575120700
H  -3.2238321400  0.5892526300  0.2914926700
H  -3.2275907700  -1.9296462400  2.0548333800
H  -4.5590955800  -1.3349429100  1.0666287200
H  -1.0457153400  -0.2575574300  -0.9392732400
C  -0.7483247500  -0.4182725500  2.5321596100
H  0.3502486500  -0.3565894100  2.5264941100
H  -1.1147106800  0.2144140700  3.3544975200
H  -1.0176772600  -1.4566779500  2.7720652600
H  -1.0060031700  1.0878717800  1.0381863100