16
charge=0, multiplicity=1, basis=def2-QZVPPD, AUX_BASIS_CORR=rimp2-def2-QZVPPD, SCF_ALGORITHM=GDM, xc_grid=000099000590, mem_total=7500, num_basis=744, num_pairs=240625, num_threads=2
C  -6.0481171700  2.7847291900  -0.2534843100
H  -5.6511230600  2.1499687300  -1.0593774500
H  -5.7459129900  3.8206541600  -0.4671078300
H  -7.1450002300  2.7398690100  -0.3014805400
C  -5.5338485700  2.3289581800  1.1144899000
H  -5.9752550000  2.9610747500  1.9030423800
H  -5.8822913000  1.3018633800  1.3158845000
C  -4.0024793600  2.3767950100  1.2137257000
H  -3.6471170300  3.4009532500  1.0192769500
H  -3.5531422300  1.7398180100  0.4384139300
C  -3.5225003800  1.9261207200  2.5816795500
H  -3.8038895400  0.8852791400  2.8003534900
H  -3.8973019700  2.5510167500  3.4017850700
N  -2.0057809700  1.9424566900  2.7436642900
O  -1.5837517900  1.8885597400  3.8986220500
O  -1.3110096500  1.9853232000  1.7301406200