18
charge=0, multiplicity=1, basis=def2-QZVPPD, AUX_BASIS_CORR=rimp2-def2-QZVPPD, SCF_ALGORITHM=GDM, xc_grid=000099000590, mem_total=7500, num_basis=774, num_pairs=251299, num_threads=2
C  -5.2409945000  -0.0151441700  0.1206020000
H  -4.9109571400  -1.0592123200  0.0122771200
H  -4.7504151400  0.5721066700  -0.6686789100
H  -6.3258662100  0.0125824400  -0.0562641300
C  -4.8912196700  0.5350049600  1.5131536700
H  -5.2378155000  1.5769469800  1.6035225900
H  -5.4472005600  -0.0456849900  2.2707328400
C  -3.4219872900  0.4672927200  1.8175025900
H  -2.9713104400  -0.5338663100  1.7905302500
C  -2.6351771500  1.5139464100  2.0959446900
H  -3.0857650400  2.5152000700  2.1228182400
C  -1.1659026900  1.4461516800  2.3996754700
H  -0.6100720400  2.0242338900  1.6399092900
H  -0.8201439500  0.4036910000  2.3120526800
C  -0.8149265600  2.0002669700  3.7902396400
H  -1.3071380300  1.4171642200  4.5816045200
H  0.2698493600  1.9702754000  3.9672723500
H  -1.1421716400  3.0456185600  3.8947617900