20
charge=0, multiplicity=1, basis=def2-QZVPPD, AUX_BASIS_CORR=rimp2-def2-QZVPPD, SCF_ALGORITHM=GDM, xc_grid=000099000590, mem_total=15000, num_basis=840, num_pairs=322833, num_threads=4
C  -4.4128006900  -1.9201180200  -0.0549260100
H  -4.1509148500  -2.9861288200  -0.0702998300
H  -3.9978939800  -1.4576693400  -0.9653256300
H  -5.5085791500  -1.8499948200  -0.1193121900
C  -3.8980524900  -1.2047368200  1.2037005000
H  -4.2940279000  -1.7440192200  2.0858056800
C  -2.3507834500  -1.2390206800  1.3111553300
H  -1.9547982600  -0.7002019800  0.4287711400
C  -1.8359121200  -0.5230653000  2.5694053900
H  -2.2510598400  -0.9848095300  3.4800528400
H  -0.7401636300  -0.5935343000  2.6339327000
H  -2.0974233900  0.5430456400  2.5840978700
C  -4.4544070900  0.2271118000  1.2384162500
H  -4.2313208000  0.7441523600  2.1811644200
H  -4.0352936300  0.8294956400  0.4159966100
H  -5.5478022100  0.2210935300  1.1186970900
C  -1.7945590000  -2.6709364900  1.2771212700
H  -0.7011204200  -2.6649456600  1.3964423200
H  -2.2134347100  -3.2727592100  2.1000725500
H  -2.0180343200  -3.1885556600  0.3347818300