6
charge=0, multiplicity=1, basis=def2-QZVPPD, AUX_BASIS_CORR=rimp2-def2-QZVPPD, SCF_ALGORITHM=GDM, xc_grid=000099000590, mem_total=3750, num_basis=258, num_pairs=33789, num_threads=1
C  -3.1696407700  -0.0107980500  0.0517452000
H  -3.1562282800  -1.1017739200  0.0186737600
H  -3.1559566700  0.5060602900  -0.9096675400
C  -3.2004808400  0.6555011000  1.2056408900
H  -3.2139010500  1.7464776700  1.2386724300
H  -3.2141736500  0.1386681400  2.1670526600