3
charge=0, multiplicity=2, basis=AUG-PC-4, AUX_BASIS_CORR=rimp2-def2-QZVPPD, SCF_ALGORITHM=GDM, xc_grid=000099000590, mem_total=3750, num_basis=317, num_pairs=51031, num_threads=1
P  -0.0000000017  0.0000000000  0.6577611744
H  1.0193949719  0.0000000000  -0.3288805880
H  -1.0193949702  0.0000000000  -0.3288805864