3
charge=0, multiplicity=3, basis=AUG-PC-4, AUX_BASIS_CORR=rimp2-def2-QZVPPD, SCF_ALGORITHM=GDM, xc_grid=000099000590, mem_total=3750, num_basis=321, num_pairs=52358, num_threads=1
C  -0.0000000000  0.0000000000  0.2825755808
H  0.9903031599  0.0000000000  -0.1412877904
H  -0.9903031599  0.0000000000  -0.1412877904