4
charge=0, multiplicity=2, basis=AUG-PC-4, AUX_BASIS_CORR=rimp2-def2-QZVPPD, SCF_ALGORITHM=GDM, xc_grid=000099000590, mem_total=3750, num_basis=409, num_pairs=84664, num_threads=1
C  -0.0000022388  0.0000000000  -0.0000000001
H  -0.5388505664  0.9333192904  0.0000000000
H  -0.5388505664  -0.9333192904  0.0000000000
H  1.0777033717  0.0000000000  0.0000000000