3
charge=0, multiplicity=1, basis=AUG-PC-4, AUX_BASIS_CORR=rimp2-def2-QZVPPD, SCF_ALGORITHM=GDM, xc_grid=000099000590, mem_total=3750, num_basis=317, num_pairs=50965, num_threads=1
Si  -0.0000000003  0.0000000000  0.7001273106
H  1.0939852199  0.0000000000  -0.3500636554
H  -1.0939852196  0.0000000000  -0.3500636552