3
charge=0, multiplicity=2, basis=AUG-PC-4, AUX_BASIS_CORR=rimp2-def2-QZVPPD, SCF_ALGORITHM=GDM, xc_grid=000099000590, mem_total=3750, num_basis=321, num_pairs=52429, num_threads=1
N  -0.0000000000  0.0000000000  0.4264656513
H  0.8007780698  0.0000000000  -0.2132328257
H  -0.8007780698  0.0000000000  -0.2132328257