4
charge=1, multiplicity=2, basis=AUG-PC-4, AUX_BASIS_CORR=rimp2-def2-QZVPPD, SCF_ALGORITHM=GDM, xc_grid=000099000590, mem_total=3750, num_basis=409, num_pairs=84700, num_threads=1
N  0.0000032322  0.0000002431  -0.0000005577
H  0.4790298154  -0.9018392111  -0.0000005725
H  0.5414944160  0.8657755755  -0.0000005725
H  -1.0205296416  0.0360625378  -0.0000005725