3
charge=0, multiplicity=2, basis=AUG-PC-4, AUX_BASIS_CORR=rimp2-def2-QZVPPD, SCF_ALGORITHM=GDM, xc_grid=000099000590, mem_total=3750, num_basis=317, num_pairs=51031, num_threads=1
P  -0.0000000006  0.0000000000  0.6577616963
H  -1.0193940423  0.0000000000  -0.3288808478
H  1.0193940429  0.0000000000  -0.3288808485