3
charge=1, multiplicity=2, basis=AUG-PC-4, AUX_BASIS_CORR=rimp2-def2-QZVPPD, SCF_ALGORITHM=GDM, xc_grid=000099000590, mem_total=3750, num_basis=321, num_pairs=52423, num_threads=1
O  -0.0000000000  0.0635538457  0.0000000000
H  -0.8147110307  -0.5147244014  0.0000000000
H  0.8147110306  -0.5147244016  0.0000000000