5
charge=0, multiplicity=1, basis=AUG-PC-4, AUX_BASIS_CORR=rimp2-def2-QZVPPD, SCF_ALGORITHM=GDM, xc_grid=000099000590, mem_total=3750, num_basis=493, num_pairs=120744, num_threads=1
Si  -0.0000000067  -0.0000000006  0.0000000011
H  0.8537064057  -0.8537064010  0.8537063973
H  -0.8537064012  0.8537064088  0.8537064036
H  -0.8537064012  -0.8537064073  -0.8537064052
H  0.8537064034  0.8537064002  -0.8537063967