4
charge=0, multiplicity=1, basis=AUG-PC-4, AUX_BASIS_CORR=rimp2-def2-QZVPPD, SCF_ALGORITHM=GDM, xc_grid=000099000590, mem_total=3750, num_basis=466, num_pairs=108539, num_threads=1
C  -0.0000000016  0.0000000016  0.6032508451
H  0.0000000015  -0.0000000015  1.6665838672
C  -0.0000000013  0.0000000013  -0.6032330686
H  0.0000000014  -0.0000000014  -1.6666016437