4
charge=0, multiplicity=1, basis=AUG-PC-4, AUX_BASIS_CORR=rimp2-def2-QZVPPD, SCF_ALGORITHM=GDM, xc_grid=000099000590, mem_total=3750, num_basis=405, num_pairs=82794, num_threads=1
P  -0.0000006972  -0.0000004948  0.5734973324
H  -0.5951303764  1.0307972319  -0.1911658206
H  -0.5951315312  -1.0307975688  -0.1911654331
H  1.1902626049  0.0000008317  -0.1911660787