5
charge=0, multiplicity=1, basis=def2-QZVPPD, AUX_BASIS_CORR=rimp2-def2-QZVPPD, SCF_ALGORITHM=GDM, xc_grid=000099000590, mem_total=3750, num_basis=261, num_pairs=34561, num_threads=1
O  0.2192371638  0.9515145358  0.0000000000
C  -0.3120387152  -0.2854783523  0.0000000000
O  0.3145879387  -1.3060845939  0.0000000000
H  1.1843706150  0.8555056178  0.0000000000
H  -1.4061570024  -0.2154572074  0.0000000000