7
charge=0, multiplicity=1, basis=def2-QZVPPD, AUX_BASIS_CORR=rimp2-def2-QZVPPD, SCF_ALGORITHM=GDM, xc_grid=000099000590, mem_total=3750, num_basis=324, num_pairs=52717, num_threads=1
C  -0.2624195746  -0.5941545392  0.0000000000
C  0.3184399182  0.7906873844  0.0000000000
O  -0.3285720427  1.8065336437  0.0000000000
H  -1.3493732605  -0.5586998065  0.0000000000
H  0.0970213480  -1.1398021303  0.8766777779
H  0.0970213480  -1.1398021303  -0.8766777779
H  1.4278822637  0.8352375782  0.0000000000