9
charge=0, multiplicity=1, basis=def2-QZVPPD, AUX_BASIS_CORR=rimp2-def2-QZVPPD, SCF_ALGORITHM=GDM, xc_grid=000099000590, mem_total=3750, num_basis=420, num_pairs=86710, num_threads=1
C  -0.0989848673  -1.1044476778  0.0000000000
C  -0.4959612028  0.3599647917  0.0000000000
O  -1.6597331580  0.7143302602  0.0000000000
N  0.5340913997  1.2543543946  0.0000000000
H  -0.5328649830  -1.5802667670  0.8786919252
H  0.9780382424  -1.2679119238  0.0000000000
H  -0.5328649830  -1.5802667670  -0.8786919252
H  1.4948321218  0.9691837247  0.0000000000
H  0.3134474302  2.2350599645  0.0000000000