5
charge=0, multiplicity=1, basis=def2-QZVPPD, AUX_BASIS_CORR=rimp2-def2-QZVPPD, SCF_ALGORITHM=GDM, xc_grid=000099000590, mem_total=3750, num_basis=287, num_pairs=41333, num_threads=1
Cl  0.0000000000  1.4939925467  0.8346444611
C  0.0000000000  0.0000000000  -0.1555982213
Cl  0.0000000000  -1.4939925467  0.8346444611
H  0.8986495032  0.0000000000  -0.7568453504
H  -0.8986495032  0.0000000000  -0.7568453504