4
charge=0, multiplicity=1, basis=def2-QZVPPD, AUX_BASIS_CORR=rimp2-def2-QZVPPD, SCF_ALGORITHM=GDM, xc_grid=000099000590, mem_total=3750, num_basis=261, num_pairs=34081, num_threads=1
B  0.0000000000  0.0000000000  0.0000000000
F  0.6583669650  1.1403250334  0.0000000000
F  0.6583669650  -1.1403250334  0.0000000000
F  -1.3167339300  0.0000000000  0.0000000000