8
charge=0, multiplicity=1, basis=def2-QZVPPD, AUX_BASIS_CORR=rimp2-def2-QZVPPD, SCF_ALGORITHM=GDM, xc_grid=000099000590, mem_total=3750, num_basis=350, num_pairs=58341, num_threads=1
Si  0.0000000000  0.0000000000  1.1778338380
Si  0.0000000000  0.0000000000  -1.1778338380
H  1.2077043640  -0.6972684397  1.6958659461
H  0.0000000000  1.3945368793  1.6958659461
H  -1.2077043640  -0.6972684397  1.6958659461
H  1.2077043640  0.6972684397  -1.6958659461
H  0.0000000000  -1.3945368793  -1.6958659461
H  -1.2077043640  0.6972684397  -1.6958659461