3
charge=0, multiplicity=1, basis=def2-QZVPPD, AUX_BASIS_CORR=rimp2-def2-QZVPPD, SCF_ALGORITHM=GDM, xc_grid=000099000590, mem_total=3750, num_basis=211, num_pairs=22568, num_threads=1
S  0.0000000000  0.0000000000  0.4976343669
O  -1.2489141298  0.0000000000  -0.2488171835
O  1.2489141298  0.0000000000  -0.2488171835