10
charge=0, multiplicity=1, basis=def2-QZVPPD, AUX_BASIS_CORR=rimp2-def2-QZVPPD, SCF_ALGORITHM=GDM, xc_grid=000099000590, mem_total=3750, num_basis=450, num_pairs=100801, num_threads=1
C  0.0000000000  -0.6675852184  0.9264237218
C  0.0000000000  -0.7855106705  -0.5852212636
C  0.0000000000  0.7855106705  -0.5852212636
C  0.0000000000  0.6675852184  0.9264237218
H  0.0000000000  -1.4104592320  1.7131920851
H  0.8870395368  -1.2426744070  -1.0271972716
H  -0.8870395368  -1.2426744070  -1.0271972716
H  -0.8870395368  1.2426744070  -1.0271972716
H  0.8870395368  1.2426744070  -1.0271972716
H  0.0000000000  1.4104592320  1.7131920851