5
charge=0, multiplicity=1, basis=def2-QZVPPD, AUX_BASIS_CORR=rimp2-def2-QZVPPD, SCF_ALGORITHM=GDM, xc_grid=000099000590, mem_total=3750, num_basis=379, num_pairs=70600, num_threads=1
C  0.0000000000  0.0000000000  0.0000000000
Cl  1.0334458696  -1.0334458696  1.0334458696
Cl  -1.0334458696  1.0334458696  1.0334458696
Cl  -1.0334458696  -1.0334458696  -1.0334458696
Cl  1.0334458696  1.0334458696  -1.0334458696