6
charge=0, multiplicity=1, basis=def2-QZVPPD, AUX_BASIS_CORR=rimp2-def2-QZVPPD, SCF_ALGORITHM=GDM, xc_grid=000099000590, mem_total=3750, num_basis=291, num_pairs=42419, num_threads=1
C  -0.5099047833  0.3467066468  0.0000000000
C  0.6268089096  -0.3194047327  0.0000000000
F  -1.7075300572  -0.2762568904  0.0000000000
H  -0.6178973251  1.4227643905  0.0000000000
H  0.6501340555  -1.3993786784  0.0000000000
H  1.5583892005  0.2255692642  0.0000000000