9
charge=0, multiplicity=1, basis=def2-QZVPPD, AUX_BASIS_CORR=rimp2-def2-QZVPPD, SCF_ALGORITHM=GDM, xc_grid=000099000590, mem_total=3750, num_basis=387, num_pairs=75468, num_threads=1
C  -0.4345164956  0.7526046471  0.0000000000
C  -0.4345164956  -0.7526046471  0.0000000000
C  0.8690329912  0.0000000000  0.0000000000
H  -0.7276099661  1.2602574293  0.9081307680
H  -0.7276099661  1.2602574293  -0.9081307680
H  -0.7276099661  -1.2602574293  0.9081307680
H  -0.7276099661  -1.2602574293  -0.9081307680
H  1.4552199321  0.0000000000  -0.9081307680
H  1.4552199321  0.0000000000  0.9081307680