6
charge=0, multiplicity=1, basis=def2-QZVPPD, AUX_BASIS_CORR=rimp2-def2-QZVPPD, SCF_ALGORITHM=GDM, xc_grid=000099000590, mem_total=3750, num_basis=288, num_pairs=41570, num_threads=1
N  0.0000000000  0.0000000000  -2.1163578717
C  0.0000000000  0.0000000000  -0.9667082548
C  0.0000000000  0.0000000000  0.4894932307
H  0.5114511164  0.8858593191  0.8645242986
H  0.5114511164  -0.8858593191  0.8645242986
H  -1.0229022327  0.0000000000  0.8645242986