7
charge=0, multiplicity=1, basis=def2-QZVPPD, AUX_BASIS_CORR=rimp2-def2-QZVPPD, SCF_ALGORITHM=GDM, xc_grid=000099000590, mem_total=3750, num_basis=337, num_pairs=57276, num_threads=1
S  0.0000000000  0.0000000000  1.5968953817
C  0.0000000000  -0.7386508747  -0.0852988105
C  0.0000000000  0.7386508747  -0.0852988105
H  0.9126784222  -1.2505971828  -0.3565744402
H  -0.9126784222  -1.2505971828  -0.3565744402
H  -0.9126784222  1.2505971828  -0.3565744402
H  0.9126784222  1.2505971828  -0.3565744402