6
charge=0, multiplicity=1, basis=def2-QZVPPD, AUX_BASIS_CORR=rimp2-def2-QZVPPD, SCF_ALGORITHM=GDM, xc_grid=000099000590, mem_total=3750, num_basis=264, num_pairs=33353, num_threads=1
O  -1.4829068100  0.0000000000  0.0665537510
H  -0.5234331280  0.0000000000  -0.0624923700
H  -1.8579032640  0.0000000000  -0.8162120050
O  1.4145985870  0.0000000000  -0.0644229460
H  1.7328088900  -0.7650122130  0.4224406690
H  1.7328088900  0.7650122130  0.4224406690