17
charge=0, multiplicity=1, basis=def2-QZVPPD, AUX_BASIS_CORR=rimp2-def2-QZVPPD, SCF_ALGORITHM=GDM, xc_grid=000099000590, mem_total=7500, num_basis=744, num_pairs=236886, num_threads=2
H  2.0535411670  -1.9486571710  -0.4760728080
H  0.6635646680  -1.0728436620  -1.1255970590
H  0.5459737960  -1.9188848750  0.4332246570
H  0.8755309470  0.3625950390  0.8720202550
H  2.7841186950  1.5919031540  0.3055513250
H  3.4361515130  0.1844941390  -0.5309354850
H  2.0391062440  1.0368065200  -1.2051407350
C  1.2047688880  -1.3223327350  -0.1966513710
N  1.6719390760  -0.1619994870  0.5355805620
C  2.5146109930  0.7069850290  -0.2684048660
H  -2.1984851140  -1.6325156460  -0.5791602240
H  -3.5477759120  -0.7728321390  0.1357841590
H  -2.0797129570  -1.0657429320  1.1099264070
H  -2.2346991970  0.7657918760  -1.3928563190
C  -2.4572793600  -0.8333225700  0.1181740620
C  -1.8972229740  0.4628490200  -0.3817821100
O  -1.1341689570  1.1634726710  0.2326815450