27
charge=0, multiplicity=1, basis=def2-QZVPPD, AUX_BASIS_CORR=rimp2-def2-QZVPPD, SCF_ALGORITHM=GDM, xc_grid=000099000590, mem_total=30000, num_basis=1314, num_pairs=638524, num_threads=8
H  -3.9593726960  -1.6143988560  0.0000000000
H  -3.8066790340  2.6772386900  0.0000000000
H  -5.1184086060  0.5738284460  0.0000000000
H  -0.1838777820  0.3918677060  0.0000000000
H  -0.4563406100  -1.9263673980  0.0000000000
H  -1.3302986960  2.5630553000  0.0000000000
C  -3.3041168290  1.7211091940  0.0000000000
C  -4.0377056050  0.5389358690  0.0000000000
C  -3.3981481470  -0.6912160200  0.0000000000
C  -2.0048792810  -0.7528534420  0.0000000000
C  -1.2632832000  0.4288301130  0.0000000000
C  -1.9168194620  1.6547122580  0.0000000000
O  -1.4309558650  -1.9831802620  0.0000000000
H  2.1521370330  -0.7660058460  2.1400725050
H  3.6221909210  2.6409026430  0.0000000000
H  3.1307423510  1.4911029150  2.1389176370
H  2.1521370330  -0.7660058460  -2.1400725050
H  1.6394392190  -2.7272060070  0.8274141620
H  3.1307423510  1.4911029150  -2.1389176370
H  1.6394392190  -2.7272060070  -0.8274141620
C  3.2002944970  1.6469035050  0.0000000000
C  2.9246021640  1.0001309050  1.1985377180
C  2.3790563060  -0.2753586950  1.2029593880
C  2.1025503920  -0.9232480280  0.0000000000
C  2.3790563060  -0.2753586950  -1.2029593880
C  2.9246021640  1.0001309050  -1.1985377180
N  1.4592612610  -2.1781973550  0.0000000000