15
charge=0, multiplicity=1, basis=def2-QZVPPD, AUX_BASIS_CORR=rimp2-def2-QZVPPD, SCF_ALGORITHM=GDM, xc_grid=000099000590, mem_total=7500, num_basis=714, num_pairs=203806, num_threads=2
C  -1.6767093500  -0.1555456950  0.0000000000
O  -0.9935336200  -1.1557863930  0.0000000000
O  -1.1739453300  1.0801773020  0.0000000000
H  -0.1859401070  1.0355549400  0.0000000000
C  -3.1809741580  -0.1560659600  0.0000000000
H  -3.5502655910  -1.1755477720  0.0000000000
H  -3.5490078070  0.3752053880  -0.8767446310
H  -3.5490078070  0.3752053880  0.8767446310
H  3.7318656660  -1.0750692840  0.8742045060
H  3.7318656660  -1.0750692840  -0.8742045060
H  4.0668087090  0.4482716630  0.0000000000
H  1.3364337210  -1.0491630900  0.0000000000
C  3.4843200100  -0.4686308600  0.0000000000
C  2.0192150530  -0.1854755220  0.0000000000
O  1.5545796050  0.9354262180  0.0000000000