4
charge=0, multiplicity=1, basis=def2-QZVPPD, AUX_BASIS_CORR=rimp2-def2-QZVPPD, SCF_ALGORITHM=GDM, xc_grid=000099000590, mem_total=3750, num_basis=162, num_pairs=13492, num_threads=1
N  -2.3469180270  0.0000000000  0.0948551680
H  -1.4808092800  0.0000000000  -0.4344080380
H  -2.8781954190  -0.8131630790  -0.1890383050
H  -2.8781954190  0.8131630790  -0.1890383050