14
charge=0, multiplicity=1, basis=def2-QZVPPD, AUX_BASIS_CORR=rimp2-def2-QZVPPD, SCF_ALGORITHM=GDM, xc_grid=000099000590, mem_total=7500, num_basis=672, num_pairs=208012, num_threads=2
H  -0.0605736190  1.3936306520  -0.0934834340
H  4.2226283400  1.2567783360  -0.0477590260
H  2.1071258780  2.5482603060  -0.1366938300
H  1.9560044080  -2.3759893090  0.1243572720
H  -1.2467155180  -0.7173064530  -0.2658011820
H  4.1208542320  -1.2184252320  0.0795224390
H  -0.4294541520  -2.1958728370  -0.1536096360
C  3.2699765860  0.7484315660  -0.0299523330
C  2.0814286530  1.4685216920  -0.0790305140
C  0.8556704380  0.8216529470  -0.0566540780
C  0.7870077470  -0.5761567720  0.0161488320
C  1.9881069270  -1.2956301010  0.0644468780
C  3.2085864760  -0.6388572210  0.0415265280
N  -0.4366038840  -1.2200742870  0.0878455080