10
charge=0, multiplicity=1, basis=def2-QZVPPD, AUX_BASIS_CORR=rimp2-def2-QZVPPD, SCF_ALGORITHM=GDM, xc_grid=000099000590, mem_total=3750, num_basis=480, num_pairs=89471, num_threads=1
C  2.6323818710  -0.0000002570  0.0000000000
H  1.5653583220  -0.0000007540  0.0000000000
C  3.8293078430  0.0000004170  0.0000000000
H  4.8902075320  0.0000010300  0.0000000000
H  -3.7075945960  -0.5111423730  -0.8853252480
H  -3.7075945960  -0.5111423730  0.8853252480
H  -3.7075944060  1.0222859820  0.0000000000
C  -3.3339452560  0.0000003960  0.0000000000
C  -1.8808059440  0.0000000510  0.0000000000
N  -0.7333847100  -0.0000006300  0.0000000000