9
charge=0, multiplicity=1, basis=def2-QZVPPD, AUX_BASIS_CORR=rimp2-def2-QZVPPD, SCF_ALGORITHM=GDM, xc_grid=000099000590, mem_total=3750, num_basis=423, num_pairs=83003, num_threads=1
O  2.2520647580  -0.2048606720  0.0000000000
H  1.5155219790  0.4203537260  0.0000000000
H  3.0506652780  0.3267509780  0.0000000000
H  -1.4799268210  -1.5761190230  0.8760674380
H  -1.4799268210  -1.5761190230  -0.8760674380
H  0.0782632790  -1.3093086590  0.0000000000
C  -0.9961620430  -1.1407198600  0.0000000000
N  -1.3568560100  0.2870762990  0.0000000000
O  -0.4225111370  1.0438781120  0.0000000000