6
charge=0, multiplicity=1, basis=def2-QZVPPD, AUX_BASIS_CORR=rimp2-def2-QZVPPD, SCF_ALGORITHM=GDM, xc_grid=000099000590, mem_total=3750, num_basis=261, num_pairs=34660, num_threads=1
O  2.3886807330  0.3276637340  0.0000000000
H  1.5379627760  -0.1323513280  0.0000000000
C  3.4286619860  -0.6320738700  0.0000000000
H  4.3737810300  -0.0919705730  0.0000000000
H  3.3990353030  -1.2713195790  -0.8880049610
H  3.3990353030  -1.2713195790  0.8880049610