21
charge=0, multiplicity=1, basis=def2-QZVPPD, AUX_BASIS_CORR=rimp2-def2-QZVPPD, SCF_ALGORITHM=GDM, xc_grid=000099000590, mem_total=15000, num_basis=1026, num_pairs=443998, num_threads=4
H  0.0397661080  0.7996634170  1.8762568400
H  -2.7235902220  -2.2193635590  0.5989198680
H  -1.1307128520  -1.3240166400  2.2778378550
H  -1.9394340710  1.1721746430  -1.9012189050
H  0.7086309300  2.4082182950  0.1555681430
H  -3.1176318170  -0.9439024590  -1.4918554510
H  -0.2328979190  2.6883379390  -1.1930123530
C  -2.2052620970  -1.2891099370  0.4198333880
C  -1.3122215230  -0.7830218000  1.3594561240
C  -0.6472321580  0.4126585910  1.1374621240
C  -0.8589608190  1.1382574480  -0.0436890490
C  -1.7612063550  0.6252838530  -0.9844541800
C  -2.4249409550  -0.5703441860  -0.7503490140
N  -0.2161827680  2.3489607980  -0.2458011180
H  1.6818148930  -1.3353505690  -1.9887187910
H  1.3386779820  -2.7665065680  -0.9750559880
H  0.3452590320  -1.2919284420  -0.7928046420
C  1.3293945650  -1.6848452400  -1.0220774320
O  2.2756050670  -1.2586052850  0.0116385180
C  2.4461382880  0.0025212340  0.1306589790
N  2.6386865710  1.1335145260  0.2679624670