22
charge=0, multiplicity=1, basis=def2-QZVPPD, AUX_BASIS_CORR=rimp2-def2-QZVPPD, SCF_ALGORITHM=GDM, xc_grid=000099000590, mem_total=15000, num_basis=1062, num_pairs=431132, num_threads=4
C  -2.8080190790  -0.1184751960  0.0672215730
O  -2.4479995570  -0.2815155170  -1.0793746870
O  -2.1633821420  0.6639751720  0.9359180110
H  -1.3644276810  1.0464271940  0.4860046560
C  -4.0183194320  -0.7703652040  0.6753308980
H  -4.5332635890  -1.3640122800  -0.0717675960
H  -4.6857295270  -0.0097732600  1.0777308280
H  -3.7113030040  -1.4032124820  1.5072789620
H  0.1714240720  -1.2036717750  -1.0018399320
H  4.0955407220  -1.6387648080  0.6731007070
H  2.0722882240  -2.6356168190  -0.3521234430
H  2.2962571240  2.2385401870  0.3909642750
H  -0.5889758540  1.0252484400  -1.3979886340
H  4.1941494410  0.8101051380  1.0354601830
H  0.2313946470  2.3768441180  -0.8637875020
C  3.2635322470  -1.0118533090  0.3881419510
C  2.1272231260  -1.5687586280  -0.1870490340
C  1.0560547770  -0.7689738110  -0.5576467710
C  1.1123569540  0.6101568190  -0.3541053930
C  2.2500009790  1.1701242940  0.2249873780
C  3.3170466020  0.3617297820  0.5904581220
N  -0.0035315250  1.4153324490  -0.6694433010