6
charge=0, multiplicity=1, basis=def2-QZVPPD, AUX_BASIS_CORR=rimp2-def2-QZVPPD, SCF_ALGORITHM=GDM, xc_grid=000099000590, mem_total=3750, num_basis=261, num_pairs=34660, num_threads=1
O  3.1553249760  -0.2050458000  -0.3918899290
H  2.4858978610  0.4833206620  -0.4746127750
C  3.1659515400  -0.6514693140  0.9529748160
H  3.8900997940  -1.4606818570  1.0209578810
H  2.1897162410  -1.0342770250  1.2664100920
H  3.4685000340  0.1389554520  1.6469131890