17
charge=0, multiplicity=1, basis=def2-QZVPPD, AUX_BASIS_CORR=rimp2-def2-QZVPPD, SCF_ALGORITHM=GDM, xc_grid=000099000590, mem_total=7500, num_basis=744, num_pairs=230118, num_threads=2
N  -2.3204492170  -0.0460319210  -0.6422052800
H  -1.4899009490  -0.6270537540  -0.6601751450
H  -2.9953795440  -0.4526622570  -1.2754816990
C  -2.8576890610  0.0206586420  0.7151717720
H  -3.7301237420  0.6738464040  0.7343366210
H  -3.1486256500  -0.9451170090  1.1452686260
H  -2.1090180040  0.4606147840  1.3741597850
H  0.8500876640  1.8440811280  0.8185900530
H  -0.2367988850  1.3472000860  -0.5011889220
H  1.4190709140  1.9343458540  -0.8340336470
H  3.0482045550  -1.2401990010  0.4445948690
H  3.0754232970  0.4058184860  1.1328448170
C  0.7933305790  1.3529656510  -0.1555290090
C  1.3232466140  -0.0547731060  -0.0278214840
O  0.6095343930  -1.0261257470  -0.1518392000
C  2.7980390640  -0.1985356020  0.2682108150
H  3.3770726690  0.1770952100  -0.5776246010