24
charge=0, multiplicity=1, basis=def2-QZVPPD, AUX_BASIS_CORR=rimp2-def2-QZVPPD, SCF_ALGORITHM=GDM, xc_grid=000099000590, mem_total=30000, num_basis=1092, num_pairs=493027, num_threads=8
H  2.5486773910  -2.0945711290  -1.1301110160
H  0.9802666590  -1.6051655830  -0.4682812670
H  1.5069136090  -1.0136922850  -2.0521557030
H  1.9207569640  0.6966452920  -0.5069836840
H  3.3542560730  0.5683615760  1.3293282030
H  3.6931812460  -1.1172434910  0.9498280740
H  2.0987998840  -0.6657034030  1.5663516170
C  1.8482338210  -1.2611299010  -1.0483700450
N  2.5232843660  -0.1141892720  -0.4625498270
C  2.9247908180  -0.3426471450  0.9135460340
H  -0.2198541050  0.7748482970  2.0959112290
H  -2.7332469440  -2.2030132430  0.3168141770
H  -1.5310722220  -1.2950263870  2.2851491840
H  -1.2994544360  1.0778315740  -2.0351528790
H  0.2921564330  2.7180146860  0.7476608220
H  -2.6088497290  -0.9931670330  -1.8428618840
H  -0.1133125200  2.8272441990  -0.8646462410
C  -2.1629377080  -1.2897947560  0.2347044920
C  -1.4884022360  -0.7781034540  1.3367724910
C  -0.7519797740  0.3923191730  1.2351477120
C  -0.6777982910  1.0767017800  0.0201824800
C  -1.3575945810  0.5619116690  -1.0857289890
C  -2.0914521150  -0.6092385040  -0.9748946800
N  0.1307253090  2.2108186820  -0.1069633830