21
charge=0, multiplicity=1, basis=def2-QZVPPD, AUX_BASIS_CORR=rimp2-def2-QZVPPD, SCF_ALGORITHM=GDM, xc_grid=000099000590, mem_total=15000, num_basis=963, num_pairs=384658, num_threads=4
H  -3.3538037110  1.2722670140  -1.1672972240
H  -1.5855315930  1.2572680800  -1.1127750480
H  -2.5160792840  2.0826300050  0.1534743520
H  -1.8434728310  -0.0000115820  0.9890724480
H  -2.5160281400  -2.0826515770  0.1534283970
H  -3.3537718310  -1.2722799390  -1.1673256210
H  -1.5855000530  -1.2572389570  -1.1128022370
C  -2.4966624000  1.2074712530  -0.4948080210
N  -2.5907610270  -0.0000133530  0.3055537840
C  -2.4966323910  -1.2074780140  -0.4948346220
H  2.2799236310  -2.1465957740  -0.7152262660
H  0.5263338100  -2.0527687800  1.0359598140
C  2.4236183410  0.0000033330  -0.8558074210
C  1.9227769970  -1.1930729360  -0.3548525430
C  0.9417252400  -1.1403594230  0.6267717260
N  0.4541536380  0.0000039040  1.1160220480
C  0.9417106280  1.1403669160  0.6267564910
C  1.9227617130  1.1930798560  -0.3548684630
H  0.5263075340  2.0527763810  1.0359323830
H  2.2798961600  2.1466024310  -0.7152549300
H  3.1864136370  0.0000030930  -1.6214875670