8
charge=0, multiplicity=1, basis=def2-QZVPPD, mem_total=3750, SCF_ALGORITHM=GDM_QLS, AUX_BASIS_CORR=rimp2-def2-QZVPPD, xc_grid=000099000590, num_basis=390, num_pairs=75127, num_threads=1
C  -1.4918587170  0.1010620520  0.0000000000
O  -0.9269947790  1.1708614370  0.0000000000
O  -0.8473059490  -1.0705822570  0.0000000000
H  0.1291570770  -0.9011224340  0.0000000000
C  -2.9861379050  -0.0740979920  0.0000000000
H  -3.2900931550  -0.6445354200  0.8767358030
H  -3.2900931550  -0.6445354200  -0.8767358030
H  -3.4715090990  0.8955336430  0.0000000000