10
charge=0, multiplicity=1, basis=def2-QZVPPD, AUX_BASIS_CORR=rimp2-def2-QZVPPD, SCF_ALGORITHM=GDM, xc_grid=000099000590, mem_total=3750, num_basis=483, num_pairs=104686, num_threads=1
O  -2.7349928150  -0.6154363030  0.0760226840
H  -1.7734333110  -0.6497823380  -0.0231921020
H  -3.0827649850  -1.1936242010  -0.6059490930
H  0.2679590940  1.9241667450  1.0086845710
H  0.4504168860  2.1335141170  -0.7512598860
H  -1.1437070900  1.7816153530  -0.0539130510
C  -0.0802408900  1.5897754280  0.0310121360
N  0.0912160280  0.1336638190  -0.1256206510
N  1.2358367900  -0.2930478300  -0.0178277530
N  2.2459026350  -0.7883969270  0.0606464290