21
charge=0, multiplicity=1, basis=def2-QZVPPD, AUX_BASIS_CORR=rimp2-def2-QZVPPD, SCF_ALGORITHM=GDM, xc_grid=000099000590, mem_total=15000, num_basis=903, num_pairs=332581, num_threads=4
N  -2.5525413200  0.0145538200  -0.6152642170
H  -1.6164652400  -0.3765328660  -0.6833949120
H  -3.1681112880  -0.5383750510  -1.1960124720
C  -2.9964136560  -0.0007809880  0.7753598440
H  -3.9798803110  0.4628565780  0.8577441800
H  -3.0548790060  -0.9965368520  1.2335832620
H  -2.3070793810  0.5939659150  1.3750068110
H  3.2399283120  -0.0629969180  -0.3291367040
H  2.9751765180  1.4727513850  0.5036913590
H  2.7296981930  -0.0605251840  1.3467496080
H  0.5257820110  2.3384800080  0.6774329140
H  2.0016304860  -2.0567117600  -0.7173866410
H  1.5023035800  -2.0491867130  0.9741906930
H  0.4291178510  -2.7142687550  -0.2592456180
H  1.0389735140  2.3419945940  -0.9960237910
H  -0.5367629510  1.6376949820  -0.5659193550
C  1.1623071900  0.4304471220  -0.0468421560
N  0.4997661910  -0.6344160280  -0.2488186160
C  1.1439199540  -1.9217755580  -0.0516882710
C  0.4948218450  1.7595724230  -0.2487884330
C  2.6077974570  0.4560333930  0.3932323210