8
charge=0, multiplicity=1, basis=def2-QZVPPD, AUX_BASIS_CORR=rimp2-def2-QZVPPD, SCF_ALGORITHM=GDM, xc_grid=000099000590, mem_total=3750, num_basis=390, num_pairs=75130, num_threads=1
C  -0.6810215300  -0.0797304450  0.0057666350
O  -0.0746873260  -1.1328066260  0.0090193290
O  -0.0808230060  1.1119964540  0.0122033430
H  0.8951818760  0.9719741450  0.0159141270
C  -2.1777602080  0.0299572790  -0.0084824720
H  -2.6212011720  -0.9590513640  0.0145117820
H  -2.5127132210  0.6134425800  0.8478052710
H  -2.4950805050  0.5607287520  -0.9052336170