4
charge=0, multiplicity=1, basis=def2-QZVPPD, AUX_BASIS_CORR=rimp2-def2-QZVPPD, SCF_ALGORITHM=GDM, xc_grid=000099000590, mem_total=3750, num_basis=162, num_pairs=13492, num_threads=1
N  1.5879696390  -0.0000000050  0.0244953060
H  2.1302226660  -0.8152921060  0.2805171720
H  2.1302225000  0.8152921970  0.2805172090
H  1.4996563350  0.0000000060  -0.9841918690