19
charge=0, multiplicity=1, basis=def2-QZVPPD, AUX_BASIS_CORR=rimp2-def2-QZVPPD, SCF_ALGORITHM=GDM, xc_grid=000099000590, mem_total=15000, num_basis=933, num_pairs=335280, num_threads=4
C  2.6453440340  0.0927415410  0.0000000000
O  2.1647408750  1.2055655010  0.0000000000
O  1.9240838360  -1.0255639910  0.0000000000
H  0.9434394930  -0.8028656000  0.0000000000
C  4.1263648560  -0.1828492520  0.0000000000
H  4.6771161660  0.7513951240  0.0000000000
H  4.3911594240  -0.7724224220  -0.8768414410
H  4.3911594240  -0.7724224220  0.8768414410
H  -3.8466461490  -1.6749928070  0.0000000000
H  -1.4548034540  -2.3513955960  0.0000000000
C  -3.3710167860  0.4291459540  0.0000000000
C  -3.0688619340  -0.9260500040  0.0000000000
C  -1.7352348630  -1.3060551180  0.0000000000
N  -0.7340750530  -0.4251489820  0.0000000000
C  -1.0247356790  0.8779129530  0.0000000000
C  -2.3310844280  1.3473541170  0.0000000000
H  -0.1711668000  1.5427767520  0.0000000000
H  -2.5220537270  2.4100881890  0.0000000000
H  -4.3992776030  0.7621243000  0.0000000000