4
charge=0, multiplicity=1, basis=def2-QZVPPD, AUX_BASIS_CORR=rimp2-def2-QZVPPD, SCF_ALGORITHM=GDM, xc_grid=000099000590, mem_total=3750, num_basis=192, num_pairs=18800, num_threads=1
C  2.7980882790  -0.5191243470  0.0000000000
H  1.7773301170  -0.8315203150  0.0000000000
C  3.9367394050  -0.1500505450  0.0000000000
H  4.9486752570  0.1691193760  0.0000000000