4
charge=0, multiplicity=1, basis=def2-QZVPPD, AUX_BASIS_CORR=rimp2-def2-QZVPPD, SCF_ALGORITHM=GDM, xc_grid=000099000590, mem_total=3750, num_basis=162, num_pairs=13492, num_threads=1
N  3.2740166950  0.0592141750  0.0000000000
H  3.8525442800  -0.1019671920  0.8145381710
H  3.8525442800  -0.1019671920  -0.8145381710
H  2.5473513280  -0.6466264990  0.0000000000