6
charge=0, multiplicity=1, basis=def2-QZVPPD, AUX_BASIS_CORR=rimp2-def2-QZVPPD, SCF_ALGORITHM=GDM, xc_grid=000099000590, mem_total=3750, num_basis=261, num_pairs=34660, num_threads=1
O  1.4999986660  0.6381463900  0.0242544330
H  2.1817284850  1.2656669750  -0.2230206580
C  2.0364084140  -0.6814604020  -0.0055916600
H  1.2220080190  -1.3557222540  0.2470788320
H  2.4110349650  -0.9450861940  -0.9971149180
H  2.8356063600  -0.8091853910  0.7278650320