13
charge=0, multiplicity=1, basis=def2-QZVPPD, AUX_BASIS_CORR=rimp2-def2-QZVPPD, SCF_ALGORITHM=GDM, xc_grid=000099000590, mem_total=3750, num_basis=615, num_pairs=161864, num_threads=1
O  1.6515627620  -0.2862504070  0.2898548040
H  1.2378631940  0.5834820020  0.3412519300
C  2.9468065330  -0.1558572490  -0.2780873100
H  3.3722545780  -1.1547592560  -0.3441094280
H  3.6023608680  0.4585243790  0.3441448620
H  2.9098448180  0.2732529620  -1.2827777960
H  -1.7166583540  -1.4558611510  1.2908872040
H  -0.3197349530  -1.5962032590  0.1762249650
H  -1.9148858970  -2.2952950610  -0.2746077580
C  -1.3990453660  -1.5026175310  0.2527721280
O  -1.8197316220  -0.2686325570  -0.4230997120
C  -1.1925996060  0.7879282830  -0.0739835840
N  -0.6284917440  1.7535636660  0.2192858040