7
charge=0, multiplicity=1, basis=def2-QZVPPD, AUX_BASIS_CORR=rimp2-def2-QZVPPD, SCF_ALGORITHM=GDM, xc_grid=000099000590, mem_total=3750, num_basis=291, num_pairs=42987, num_threads=1
N  3.2936085760  -0.2147150140  0.3084201150
H  3.2565640080  -0.9886991190  0.9588762450
H  4.2277864540  0.1687375430  0.3675645790
C  2.9998254800  -0.6692792870  -1.0560596600
H  3.0508972260  0.1815898610  -1.7333517070
H  3.6753389870  -1.4446479870  -1.4295133500
H  1.9817245250  -1.0520317600  -1.0919435000