8
charge=0, multiplicity=1, basis=def2-QZVPPD, AUX_BASIS_CORR=rimp2-def2-QZVPPD, SCF_ALGORITHM=GDM, xc_grid=000099000590, mem_total=3750, num_basis=390, num_pairs=75190, num_threads=1
H  2.3282493370  1.0856687820  0.0000000000
H  -0.7983400110  -1.3994545740  0.0000000000
H  0.6819379400  -1.8807052910  0.8764601870
H  0.6819379400  -1.8807052910  -0.8764601870
O  0.0554625640  1.0366188670  0.0000000000
C  0.7557873350  0.0545995070  0.0000000000
O  2.1055407010  0.1444587290  0.0000000000
C  0.2863034070  -1.3686134840  0.0000000000