20
charge=0, multiplicity=1, basis=def2-QZVPPD, AUX_BASIS_CORR=rimp2-def2-QZVPPD, SCF_ALGORITHM=GDM, xc_grid=000099000590, mem_total=15000, num_basis=996, num_pairs=420831, num_threads=4
H  -1.8042129460  -1.1320646830  -1.9709094410
H  -2.9551315250  2.0504863350  0.6743363460
H  -3.1995257730  0.8579161760  -1.4843191810
H  0.0428020860  -0.7768722680  1.8625902500
H  0.7844726060  -2.1504410820  0.0814551540
H  -1.3307343350  1.2142314620  2.3486360050
C  -2.3512383550  1.1808591200  0.4609468770
C  -2.4872591230  0.5084775260  -0.7499489210
C  -1.7131507180  -0.6080739000  -1.0306480010
C  -0.7891627170  -1.0684773300  -0.0934037770
C  -0.6616804210  -0.4095398920  1.1307613600
C  -1.4385792530  0.7108428990  1.3979982470
O  -0.0466344430  -2.1570346330  -0.4172978600
H  1.4268357010  1.1027963070  -1.9206988540
H  1.5373782380  2.7316229300  -1.1898973790
H  0.3733456060  1.5351844540  -0.5395970750
C  1.3408802940  1.6828390140  -1.0068136580
O  2.3950857250  1.2662870330  -0.0730207120
C  2.4491717830  0.0196459940  0.1931106700
N  2.5319480170  -1.1026854150  0.4549896010