3
charge=0, multiplicity=1, basis=def2-QZVPPD, AUX_BASIS_CORR=rimp2-def2-QZVPPD, SCF_ALGORITHM=GDM, xc_grid=000099000590, mem_total=3750, num_basis=132, num_pairs=9017, num_threads=1
O  2.2543943420  0.0000000000  0.0351847700
H  2.7187195650  -0.7642450220  -0.3151136400
H  2.7187195650  0.7642450220  -0.3151136400