21
charge=0, multiplicity=1, basis=def2-QZVPPD, AUX_BASIS_CORR=rimp2-def2-QZVPPD, SCF_ALGORITHM=GDM, xc_grid=000099000590, mem_total=15000, num_basis=996, num_pairs=415648, num_threads=4
H  -0.2925836700  -0.1392461080  1.8770989110
H  2.7545207220  2.2320704140  0.0150390750
H  1.0396170970  1.9246352040  1.7807479160
H  1.7814383200  -1.6337200460  -1.5563264180
H  -1.0378628650  -2.0924575940  0.5900608840
H  3.1156412170  0.4265205740  -1.6460847730
H  -0.0724368160  -2.7809977150  -0.5837115440
C  2.1683339100  1.3260516860  0.0564491330
C  1.2052435310  1.1504452450  1.0440983380
C  0.4511519110  -0.0113107670  1.1032434980
C  0.6425481190  -1.0323779400  0.1637282330
C  1.6176762050  -0.8533755330  -0.8243747960
C  2.3691429260  0.3109723830  -0.8724977400
N  -0.0976218380  -2.2054252760  0.2413432560
H  -2.7542757240  2.1501096660  -1.3855905430
H  -1.2841777420  2.1339794670  -0.4270418090
H  -2.8701895590  2.0665358760  0.3957916550
H  -1.6718815880  -0.1379672950  -1.4254615250
C  -2.3042210960  1.7479320220  -0.4751929140
C  -2.2461316270  0.2562393810  -0.5656445030
O  -2.7636587820  -0.5036114120  0.2156379550