6
charge=0, multiplicity=1, basis=def2-QZVPPD, AUX_BASIS_CORR=rimp2-def2-QZVPPD, SCF_ALGORITHM=GDM, xc_grid=000099000590, mem_total=3750, num_basis=291, num_pairs=42718, num_threads=1
H  1.8868140250  1.7083348340  0.8774369800
H  1.8868140250  1.7083348340  -0.8774369800
H  0.3829734900  1.2278121570  0.0000000000
C  1.4708868770  1.2109191260  0.0000000000
N  2.0127861510  -0.1616595280  0.0000000000
O  1.1774671330  -1.0237553310  0.0000000000