19
charge=0, multiplicity=1, basis=def2-QZVPPD, AUX_BASIS_CORR=rimp2-def2-QZVPPD, SCF_ALGORITHM=GDM, xc_grid=000099000590, mem_total=15000, num_basis=903, num_pairs=340519, num_threads=4
H  -1.4219662720  -1.0935984900  1.2631261620
H  -2.8722303600  -1.5917228770  0.3225291710
H  -3.0669778860  -0.6082754720  1.8004389950
C  -2.4276610390  -0.8266847880  0.9539559920
O  -2.3725661270  0.4308437520  0.1983651670
C  -1.6010169220  0.4423027120  -0.8207120990
N  -0.9222275600  0.5056412280  -1.7540311610
C  1.7749815310  -1.5757115500  -0.9003644270
H  2.6849150030  -1.3242689530  -1.4421686880
H  1.8837537000  -2.5511377210  -0.4350551750
H  0.9507489670  -1.6183140480  -1.6124688780
C  1.4211435620  -0.5585359130  0.1576457540
O  0.7155791610  -0.8394668580  1.1193390840
N  1.9193244070  0.6860117600  -0.0330620780
H  2.3294413060  0.8846436250  -0.9280699050
C  1.4881872550  1.8090192240  0.7758668220
H  1.4182597130  1.4928796570  1.8121931810
H  0.5109611190  2.1800459800  0.4602671980
H  2.2163993070  2.6120603020  0.6942319170