4
charge=0, multiplicity=1, basis=def2-QZVPPD, AUX_BASIS_CORR=rimp2-def2-QZVPPD, SCF_ALGORITHM=GDM, xc_grid=000099000590, mem_total=3750, num_basis=162, num_pairs=13492, num_threads=1
N  -2.9190781300  -0.0052794670  0.0000000000
H  -2.1027718970  0.5983981130  0.0000000000
H  -3.4731831590  0.2301957100  0.8134812200
H  -3.4731831590  0.2301957100  -0.8134812200