21
charge=0, multiplicity=1, basis=def2-QZVPPD, AUX_BASIS_CORR=rimp2-def2-QZVPPD, SCF_ALGORITHM=GDM, xc_grid=000099000590, mem_total=15000, num_basis=939, num_pairs=355829, num_threads=4
C  0.9223100710  -1.7970096870  0.0000000000
H  1.2227924400  -2.3667880560  -0.8775542760
H  1.2227924400  -2.3667880560  0.8775542760
H  -0.1591001480  -1.6786153650  0.0000000000
C  1.6674959190  -0.4759017300  0.0000000000
O  2.8880298480  -0.4273437570  0.0000000000
N  0.8929538020  0.6338322980  0.0000000000
H  -0.1126818230  0.5417409100  0.0000000000
C  1.4826529570  1.9570004380  0.0000000000
H  2.1089052760  2.1075414250  -0.8792299040
H  2.1089052760  2.1075414250  0.8792299040
H  0.6838042340  2.6940537470  0.0000000000
H  -2.1207686290  0.2552088510  2.0229226530
H  -2.7169869400  -1.2185487370  1.2263333080
H  -3.7169935610  0.2538536090  1.2383526610
H  -2.1207686290  0.2552088510  -2.0229226530
H  -2.7169869400  -1.2185487370  -1.2263333080
H  -3.7169935610  0.2538536090  -1.2383526610
C  -2.6922805080  -0.1250904350  1.1805168030
O  -2.0526457870  0.3213736070  0.0000000000
C  -2.6922805080  -0.1250904350  -1.1805168030