17
charge=0, multiplicity=1, basis=def2-QZVPPD, AUX_BASIS_CORR=rimp2-def2-QZVPPD, SCF_ALGORITHM=GDM, xc_grid=000099000590, mem_total=7500, num_basis=780, num_pairs=243827, num_threads=2
O  2.3886807330  0.3276637340  0.0000000000
H  1.5379627760  -0.1323513280  0.0000000000
C  3.4286619860  -0.6320738700  0.0000000000
H  4.3737810300  -0.0919705730  0.0000000000
H  3.3990353030  -1.2713195790  -0.8880049610
H  3.3990353030  -1.2713195790  0.8880049610
H  0.1186313710  1.6566229920  0.8844154890
H  -0.9217836120  2.8070600820  0.0000000000
H  0.1186313710  1.6566229920  -0.8844154890
H  -3.1970405990  -0.9867442500  -0.8774200880
C  -1.3439737090  -0.3969918270  0.0000000000
O  -1.6187653920  0.9107077470  0.0000000000
C  -0.4932249420  1.8114688970  0.0000000000
C  -2.5975581080  -1.2244457740  0.0000000000
O  -0.2220213740  -0.8499831410  0.0000000000
H  -2.3394214230  -2.2774691140  0.0000000000
H  -3.1970405990  -0.9867442500  0.8774200880