14
charge=0, multiplicity=1, basis=def2-QZVPPD, AUX_BASIS_CORR=rimp2-def2-QZVPPD, SCF_ALGORITHM=GDM, xc_grid=000099000590, mem_total=3750, num_basis=582, num_pairs=150758, num_threads=1
N  1.4273390820  -0.5994609330  -0.3912104050
H  0.5247167990  -0.8141358610  0.0223758400
H  2.0048661260  -1.4252376660  -0.3094503340
C  2.0473083000  0.5316602020  0.2939679700
H  3.0095536280  0.7592686400  -0.1651467510
H  2.2142507130  0.3890806520  1.3693408670
H  1.4176093920  1.4132125980  0.1731109740
N  -1.6641306360  -0.6048896350  0.3205365360
H  -2.0042272670  -1.3008809380  -0.3299113090
H  -2.2367217940  -0.6730685770  1.1511136510
C  -1.7463779670  0.7357990020  -0.2668218390
H  -1.3987486680  1.4660627950  0.4624784580
H  -2.7494901350  1.0314192000  -0.5913644010
H  -1.0771698460  0.7872662470  -1.1239101060