3
charge=0, multiplicity=1, basis=def2-QZVPPD, AUX_BASIS_CORR=rimp2-def2-QZVPPD, SCF_ALGORITHM=GDM, xc_grid=000099000590, mem_total=3750, num_basis=132, num_pairs=9017, num_threads=1
O  2.2520647580  -0.2048606720  0.0000000000
H  1.5155219790  0.4203537260  0.0000000000
H  3.0506652780  0.3267509780  0.0000000000