3
charge=0, multiplicity=1, basis=def2-QZVPPD, AUX_BASIS_CORR=rimp2-def2-QZVPPD, SCF_ALGORITHM=GDM, xc_grid=000099000590, mem_total=3750, num_basis=132, num_pairs=9017, num_threads=1
O  2.4207055220  0.0326880490  -0.0593504500
H  3.0299731050  -0.0548341800  0.6771859160
H  1.8130586380  -0.7277004860  -0.0126051750