6
charge=0, multiplicity=1, basis=def2-QZVPPD, AUX_BASIS_CORR=rimp2-def2-QZVPPD, SCF_ALGORITHM=GDM, xc_grid=000099000590, mem_total=3750, num_basis=291, num_pairs=42718, num_threads=1
H  1.4608746120  -1.7064574570  -0.9216434410
H  2.0695624820  -1.6619564450  0.7202478020
H  0.3529807870  -1.1759693160  0.4090241020
C  1.3743196700  -1.1799003800  0.0304901620
N  1.8997605560  0.1800960780  -0.1998902360
O  1.1317305780  1.0619308180  0.0757318700