4
charge=0, multiplicity=1, basis=def2-QZVPPD, AUX_BASIS_CORR=rimp2-def2-QZVPPD, SCF_ALGORITHM=GDM, xc_grid=000099000590, mem_total=3750, num_basis=162, num_pairs=13492, num_threads=1
N  2.9154240050  -0.6367200990  -0.3277623820
H  2.0196422770  -0.8694213990  0.0932917870
H  3.6160174160  -0.6927280130  0.4007585610
H  3.1327644800  -1.3627181840  -0.9987356870