4
charge=0, multiplicity=1, basis=def2-QZVPPD, AUX_BASIS_CORR=rimp2-def2-QZVPPD, SCF_ALGORITHM=GDM, xc_grid=000099000590, mem_total=3750, num_basis=162, num_pairs=13492, num_threads=1
N  -1.6548831450  -0.0000000040  -0.0606936130
H  -0.6699880290  0.0000000780  0.1922479370
H  -2.0801281570  -0.8128400070  0.3669679280
H  -2.0801282990  0.8128399570  0.3669678690