15
charge=0, multiplicity=1, basis=def2-QZVPPD, AUX_BASIS_CORR=rimp2-def2-QZVPPD, SCF_ALGORITHM=GDM, xc_grid=000099000590, mem_total=7500, num_basis=705, num_pairs=210864, num_threads=2
N  -3.5951130020  -0.0744070350  0.0000000000
H  -2.7197333270  0.4433799290  0.0000000000
H  -4.1223844250  0.2156510980  0.8135794570
H  -4.1223844250  0.2156510980  -0.8135794570
H  1.0848231620  -2.4394439660  0.0000000000
H  -1.1856719760  -1.4129944460  0.0000000000
C  2.0774531290  -0.5261143310  0.0000000000
C  0.9725498190  -1.3651585870  0.0000000000
C  -0.2953016130  -0.7968869290  0.0000000000
N  -0.5021237170  0.5213609760  0.0000000000
C  0.5652481080  1.3195204130  0.0000000000
C  1.8709475690  0.8463479420  0.0000000000
H  0.3677496010  2.3844607720  0.0000000000
H  2.7002254780  1.5384978550  0.0000000000
H  3.0790501230  -0.9325837330  0.0000000000