10
charge=0, multiplicity=1, basis=def2-QZVPPD, AUX_BASIS_CORR=rimp2-def2-QZVPPD, SCF_ALGORITHM=GDM, xc_grid=000099000590, mem_total=3750, num_basis=450, num_pairs=94514, num_threads=1
H  1.2758677350  2.2807311810  0.9158539020
H  2.4952739110  1.7374993500  -0.2825858200
H  0.8767814260  2.3166508400  -0.7941418820
H  1.2394946470  -2.3187657820  -0.9781104140
H  0.0279231770  -1.8003365200  0.2400925130
H  1.6602076120  -2.3602193480  0.7239086530
C  1.4352959870  1.7704761850  -0.0339278280
N  0.8616392550  0.4330421370  0.0727514720
N  1.6612395930  -0.4778235790  -0.1337214000
C  1.0850831160  -1.8146016980  -0.0240252010