16
charge=0, multiplicity=1, basis=def2-QZVPPD, AUX_BASIS_CORR=rimp2-def2-QZVPPD, SCF_ALGORITHM=GDM, xc_grid=000099000590, mem_total=7500, num_basis=768, num_pairs=220064, num_threads=2
H  1.3325172380  2.1010716730  0.0000000000
H  3.9398325590  1.3593367220  0.0000000000
H  3.9438403800  -1.3533903680  0.0000000000
H  1.3387323960  -2.1028292950  0.0000000000
N  0.9789894080  -0.0014107000  0.0000000000
C  1.7658070230  1.1174436710  0.0000000000
C  3.0804494730  0.7121817860  0.0000000000
C  3.0825491610  -0.7087792190  0.0000000000
C  1.7691111480  -1.1179220210  0.0000000000
H  -0.0302444480  -0.0028634340  0.0000000000
H  -5.0858730390  0.5138480610  -0.8856763020
H  -5.0886242540  -1.0199665730  0.0000000000
H  -5.0858730390  0.5138480610  0.8856763020
C  -4.7141548700  0.0019842060  0.0000000000
C  -3.2616966560  -0.0007323980  0.0000000000
N  -2.1148651260  -0.0028218140  0.0000000000