26
charge=0, multiplicity=1, basis=def2-QZVPPD, AUX_BASIS_CORR=rimp2-def2-QZVPPD, SCF_ALGORITHM=GDM, xc_grid=000099000590, mem_total=30000, num_basis=1221, num_pairs=587604, num_threads=8
H  0.0558264850  -0.4919863290  1.5301942310
H  -3.0238747270  -2.4706342080  -0.7055459570
H  -1.0086546330  -2.5664116430  0.7376820860
H  -2.8811684250  1.8098652930  -0.5609093060
H  0.2826461870  1.9047465310  1.1068913850
H  -3.9544838360  -0.2596355120  -1.3343343590
H  -1.0020399080  2.8106119390  0.5250466450
C  -2.5529487010  -1.5613574490  -0.3623315680
C  -1.4209744780  -1.6099407550  0.4452241940
C  -0.8152843830  -0.4471715460  0.8930311410
C  -1.3255271160  0.8075245950  0.5314817020
C  -2.4692504090  0.8503491210  -0.2756046730
C  -3.0724837290  -0.3201312970  -0.7115983420
N  -0.7214334900  1.9663268540  0.9946612150
C  1.4331256040  0.9098389320  -1.7589943660
H  1.7075430960  0.3116835980  -2.6258142980
H  1.7404292550  1.9400400060  -1.9163819380
H  0.3488033120  0.8893494540  -1.6516771090
C  2.0460367530  0.4051851600  -0.4736815940
O  2.1329171440  1.1075262720  0.5259774710
N  2.4789479760  -0.8783717780  -0.4930768240
H  2.2859510540  -1.4286470990  -1.3099742460
C  2.9645345100  -1.5513630410  0.6952585990
H  3.4531612400  -0.8215645270  1.3332452650
H  2.1520881760  -2.0124440820  1.2604821470
H  3.6799107940  -2.3202254590  0.4130648200