6
charge=0, multiplicity=1, basis=def2-QZVPPD, AUX_BASIS_CORR=rimp2-def2-QZVPPD, SCF_ALGORITHM=GDM, xc_grid=000099000590, mem_total=3750, num_basis=288, num_pairs=41612, num_threads=1
H  -2.7798773960  1.0597890220  0.8362918590
H  -1.4095485850  1.7577926310  -0.0419950290
H  -2.7473943470  1.0143106500  -0.9335117150
C  -2.1369516980  0.9481838700  -0.0348261490
C  -1.4492725670  -0.3309186560  0.0104639610
N  -0.8975317230  -1.3372347720  0.0448730320