18
charge=0, multiplicity=1, basis=def2-QZVPPD, AUX_BASIS_CORR=rimp2-def2-QZVPPD, SCF_ALGORITHM=GDM, xc_grid=000099000590, mem_total=7500, num_basis=810, num_pairs=273618, num_threads=2
C  0.6254058090  1.7954386160  -0.2759350610
H  1.2073426350  2.3355908430  -1.0202638880
H  -0.4030392600  1.7033946520  -0.6182809310
H  0.6497105360  2.3794406680  0.6429079650
C  1.2910153380  0.4576265620  -0.0180027500
O  2.4592578070  0.3758724920  0.3290324990
N  0.5053741120  -0.6314420900  -0.1911015090
H  -0.4549090740  -0.5154429220  -0.4757030480
C  1.0198761750  -1.9678858820  0.0276839570
H  1.8244431220  -2.2007424580  -0.6701355810
H  0.2104322570  -2.6797398930  -0.1114065530
H  1.4193511590  -2.0704936720  1.0361522220
O  -2.4193683400  -0.2300485210  -0.5344761580
H  -3.0889575690  -0.1433327430  -1.2157049990
C  -2.9279639260  0.2604212140  0.7055033270
H  -2.1274195530  0.1551087090  1.4328288870
H  -3.7885197080  -0.3196434840  1.0431975000
H  -3.2037981970  1.3144938320  0.6389795980