7
charge=0, multiplicity=1, basis=def2-QZVPPD, AUX_BASIS_CORR=rimp2-def2-QZVPPD, SCF_ALGORITHM=GDM, xc_grid=000099000590, mem_total=3750, num_basis=357, num_pairs=63742, num_threads=1
H  2.4638307550  -0.4283625660  -2.1995758130
H  1.6130801820  0.9842852630  -1.4616443240
H  1.0011893290  -0.6514390000  -1.1802091770
C  1.8944487410  -0.0577793080  -1.3581647750
N  2.7452099830  -0.1816166020  -0.1352468970
O  2.3372465890  0.3571369560  0.8892567430
O  3.7738255290  -0.8165670370  -0.2146099390