26
charge=0, multiplicity=1, basis=def2-QZVPPD, AUX_BASIS_CORR=rimp2-def2-QZVPPD, SCF_ALGORITHM=GDM, xc_grid=000099000590, mem_total=30000, num_basis=1284, num_pairs=602867, num_threads=8
H  3.7190658360  -1.3136879980  1.3306047130
H  4.0970905740  2.4564980440  -0.6910248020
H  5.0324381160  0.7214883160  0.8112885600
H  0.5417010560  0.1083394150  -1.1470481330
H  0.5072480690  -1.8776554780  0.0372915300
H  1.8426339800  2.1328210600  -1.6657955100
C  3.5272794490  1.5675339010  -0.4638084620
C  4.0497869450  0.5919736840  0.3794252740
C  3.3229801670  -0.5507623630  0.6763197860
C  2.0551631740  -0.7301205690  0.1257939140
C  1.5256714150  0.2425972940  -0.7214700700
C  2.2636344590  1.3837044130  -1.0096763720
O  1.3821652410  -1.8650711860  0.4523431550
H  -0.8425845560  -0.3679133470  1.5371048880
H  -4.0877344280  2.3567852950  0.8523225700
H  -2.1390438570  1.6338799920  2.1986371990
H  -3.4327102870  -0.9284921270  -1.8208330290
H  -1.6522156780  -2.2784352860  -1.2970815820
H  -4.7290496580  1.0650614800  -1.1603555890
C  -3.5224674340  1.4828376230  0.5645830920
C  -2.4286921860  1.0751429650  1.3204012790
C  -1.6958735340  -0.0457357120  0.9590879440
C  -2.0663539070  -0.7600178340  -0.1729224770
C  -3.1546332160  -0.3648095620  -0.9392424450
C  -3.8815964720  0.7585267910  -0.5641718700
O  -1.3063182850  -1.8599652690  -0.5042537860