17
charge=0, multiplicity=1, basis=def2-QZVPPD, AUX_BASIS_CORR=rimp2-def2-QZVPPD, SCF_ALGORITHM=GDM, xc_grid=000099000590, mem_total=7500, num_basis=711, num_pairs=227137, num_threads=2
N  -2.6725446870  0.0000000000  -0.2653485510
H  -1.6774751010  0.0000000000  -0.4837101110
H  -3.0844917070  -0.8130887560  -0.7050866230
H  -3.0844917070  0.8130887560  -0.7050866230
H  2.5407406000  0.0000000000  -0.5937334600
H  1.4646618810  -0.8828378000  -1.6936229220
H  1.4646618810  0.8828378000  -1.6936229220
H  0.4273560510  2.0825119360  0.1031421140
H  1.4067698810  1.2793765350  1.3454462240
H  -0.3677529250  1.1989329070  1.4091074600
H  1.4067698810  -1.2793765350  1.3454462240
H  -0.3677529250  -1.1989329070  1.4091074600
C  1.5421066680  0.0000000000  -1.0603799090
N  0.4695641680  0.0000000000  -0.0813444230
C  0.4901473480  1.2002574890  0.7390360510
C  0.4901473480  -1.2002574890  0.7390360510
H  0.4273560510  -2.0825119360  0.1031421140