18
charge=0, multiplicity=1, basis=def2-QZVPPD, AUX_BASIS_CORR=rimp2-def2-QZVPPD, SCF_ALGORITHM=GDM, xc_grid=000099000590, mem_total=15000, num_basis=837, num_pairs=301182, num_threads=4
H  -3.1042283850  -1.0232564500  0.9820237320
H  -2.9520754290  0.7109147750  1.3187828700
H  -1.5437377860  -0.3611013530  1.5334335320
C  -1.6720338730  0.2420785460  -1.4940321790
N  -2.0394854390  0.0598687200  -0.4068903030
C  -2.4341530210  -0.1673651480  0.9393328340
C  1.3813722140  -1.7309813920  -0.6635723830
H  1.8104024720  -2.5067188410  -0.0348369550
H  0.4150280080  -2.0823411960  -1.0239830240
H  2.0277423540  -1.5571862250  -1.5215305870
C  1.1540927050  -0.4922965170  0.1725214240
O  0.6961559290  -0.5540803270  1.3053877510
N  1.4837774580  0.6840824250  -0.4159788050
H  1.6894336090  0.6698968580  -1.3986746550
C  1.1585078940  1.9597402680  0.1901868830
H  1.2928546530  1.8815375020  1.2647008980
H  0.1250158640  2.2489203910  -0.0107497770
H  1.8235475110  2.7262554570  -0.2001749750