4
charge=0, multiplicity=1, basis=def2-QZVPPD, AUX_BASIS_CORR=rimp2-def2-QZVPPD, SCF_ALGORITHM=GDM, xc_grid=000099000590, mem_total=3750, num_basis=162, num_pairs=13492, num_threads=1
N  -3.7127083030  0.6841109040  0.0000000000
H  -3.1494250680  -0.1583908790  0.0000000000
H  -4.3120437630  0.6523082400  -0.8146850730
H  -4.3120437630  0.6523082400  0.8146850730