19
charge=0, multiplicity=1, basis=def2-QZVPPD, AUX_BASIS_CORR=rimp2-def2-QZVPPD, SCF_ALGORITHM=GDM, xc_grid=000099000590, mem_total=15000, num_basis=903, num_pairs=333703, num_threads=4
O  3.1553249760  -0.2050458000  -0.3918899290
H  2.4858978610  0.4833206620  -0.4746127750
C  3.1659515400  -0.6514693140  0.9529748160
H  3.8900997940  -1.4606818570  1.0209578810
H  2.1897162410  -1.0342770250  1.2664100920
H  3.4685000340  0.1389554520  1.6469131890
H  0.6604803570  -1.0331162510  -0.9859703690
H  -3.3952464770  -1.6327772900  0.2965834480
H  -1.2932191960  -2.5241957640  -0.6622467960
H  -1.5864339180  2.2404321550  0.6029455360
H  0.5808170080  2.3689568900  -0.1300087040
H  -3.5319376920  0.7581545590  0.9266866430
C  -2.5440984180  -0.9835004940  0.1544934350
C  -1.3626440630  -1.4822835290  -0.3838870360
C  -0.2634186920  -0.6570162510  -0.5713650080
C  -0.3532434450  0.6827843060  -0.2123905880
C  -1.5266772620  1.1951495140  0.3267519550
C  -2.6201716780  0.3570923240  0.5076229510
O  0.7582158420  1.4673481250  -0.4102776020