9
charge=0, multiplicity=1, basis=def2-QZVPPD, AUX_BASIS_CORR=rimp2-def2-QZVPPD, SCF_ALGORITHM=GDM, xc_grid=000099000590, mem_total=3750, num_basis=420, num_pairs=86816, num_threads=1
H  3.2559276390  -0.6245565190  -0.1901947360
H  3.0433331340  1.0924465660  -0.1518312400
H  1.5321287070  -2.1291708800  -0.0922101210
H  -0.0135215970  -1.4799484310  -0.6774545320
H  0.3088216990  -1.5323609460  1.0440123400
O  0.5736638320  1.0163674650  0.0993173460
C  1.3028978500  0.0426605070  0.0172007710
N  2.6482054360  0.1688184330  -0.1201346770
C  0.7687463600  -1.3715684830  0.0704660170