7
charge=0, multiplicity=1, basis=def2-QZVPPD, AUX_BASIS_CORR=rimp2-def2-QZVPPD, SCF_ALGORITHM=GDM, xc_grid=000099000590, mem_total=3750, num_basis=324, num_pairs=52717, num_threads=1
H  -2.3363484040  -1.4907957400  0.8744609170
H  -2.3363484040  -1.4907957400  -0.8744609170
H  -0.7760248270  -1.4780673400  0.0000000000
H  -2.8764569550  0.8159103710  0.0000000000
C  -1.7997387720  -1.1150468020  0.0000000000
C  -1.8598420560  0.3786007440  0.0000000000
O  -0.9013630540  1.1138953320  0.0000000000