4
charge=0, multiplicity=1, basis=def2-QZVPPD, AUX_BASIS_CORR=rimp2-def2-QZVPPD, SCF_ALGORITHM=GDM, xc_grid=000099000590, mem_total=3750, num_basis=192, num_pairs=18800, num_threads=1
C  1.9857494230  0.0000000000  0.1664956860
H  0.9525555450  0.0000000000  0.4400315240
C  3.1398714450  0.0000000000  -0.1507919850
H  4.1641222070  0.0000000000  -0.4281116310