7
charge=0, multiplicity=1, basis=def2-QZVPPD, AUX_BASIS_CORR=rimp2-def2-QZVPPD, SCF_ALGORITHM=GDM, xc_grid=000099000590, mem_total=3750, num_basis=324, num_pairs=52717, num_threads=1
H  -2.1984851140  -1.6325156460  -0.5791602240
H  -3.5477759120  -0.7728321390  0.1357841590
H  -2.0797129570  -1.0657429320  1.1099264070
H  -2.2346991970  0.7657918760  -1.3928563190
C  -2.4572793600  -0.8333225700  0.1181740620
C  -1.8972229740  0.4628490200  -0.3817821100
O  -1.1341689570  1.1634726710  0.2326815450