11
charge=0, multiplicity=1, basis=def2-QZVPPD, AUX_BASIS_CORR=rimp2-def2-QZVPPD, SCF_ALGORITHM=GDM, xc_grid=000099000590, mem_total=3750, num_basis=549, num_pairs=132512, num_threads=1
C  -2.4329062530  0.4735826020  0.0041305640
H  -1.6462412220  1.1390019240  -0.2615521200
C  -3.2979396820  -0.2960634440  0.3052597800
H  -4.0750237140  -0.9674670810  0.5735620130
H  -0.3750679520  -1.2575582710  -0.1327918810
H  1.2337319480  -2.0646495370  -0.0739663720
H  0.6617724530  -1.2478999460  -1.5711932520
C  0.6520753030  -1.2509699700  -0.4860127320
N  1.2636219210  0.0379305590  -0.0361946940
O  0.7397305310  1.0642263690  -0.4403858000
O  2.2312902450  -0.0144926430  0.6970147590