8
charge=0, multiplicity=1, basis=def2-QZVPPD, AUX_BASIS_CORR=rimp2-def2-QZVPPD, SCF_ALGORITHM=GDM, xc_grid=000099000590, mem_total=3750, num_basis=390, num_pairs=75127, num_threads=1
C  2.3657853950  0.0966410880  0.0000000000
O  1.8240829980  1.1753725670  0.0000000000
O  1.6895746100  -1.0638217790  0.0000000000
H  0.7330971410  -0.8677857790  0.0000000000
C  3.8526429590  -0.1211108330  0.0000000000
H  4.3640056000  0.8348729930  0.0000000000
H  4.1400934010  -0.6994242250  -0.8770653990
H  4.1400934010  -0.6994242250  0.8770653990