11
charge=0, multiplicity=1, basis=def2-QZVPPD, AUX_BASIS_CORR=rimp2-def2-QZVPPD, SCF_ALGORITHM=GDM, xc_grid=000099000590, mem_total=3750, num_basis=453, num_pairs=91180, num_threads=1
N  -0.8841011260  -0.6813874730  -0.0695416770
H  0.0881700330  -0.4877106790  0.1487354910
H  -1.2135795120  -1.3685550240  0.5949447790
C  -1.6797661740  0.5402337200  0.0169546910
H  -2.7164354610  0.3255009670  -0.2436850360
H  -1.6759883100  1.0298048610  0.9995906410
H  -1.3090707800  1.2616363430  -0.7115164260
N  2.2558416930  0.1217438520  0.0227603040
H  2.3367526860  -0.1728718590  -0.9424988430
H  2.4683432060  1.1107443250  0.0555138060
H  2.9757876580  -0.3589874990  0.5469748110