6
charge=0, multiplicity=1, basis=def2-QZVPPD, AUX_BASIS_CORR=rimp2-def2-QZVPPD, SCF_ALGORITHM=GDM, xc_grid=000099000590, mem_total=3750, num_basis=261, num_pairs=34660, num_threads=1
O  2.8181851010  -0.2474355320  0.0568219560
H  1.9760715030  0.1890515770  -0.1321322080
C  3.8279087630  0.7364436570  0.1849682130
H  4.7607286250  0.2219494730  0.4086798290
H  3.6182080130  1.4373667350  0.9988513210
H  3.9639485140  1.3080083680  -0.7382519080