21
charge=0, multiplicity=1, basis=def2-QZVPPD, AUX_BASIS_CORR=rimp2-def2-QZVPPD, SCF_ALGORITHM=GDM, xc_grid=000099000590, mem_total=15000, num_basis=969, num_pairs=374164, num_threads=4
C  1.3844847840  -1.7197124670  0.5894385860
H  0.3975987780  -1.5682800330  1.0211271970
H  1.3161454910  -2.4183522370  -0.2435840410
H  2.0387599140  -2.1675067190  1.3349091050
C  2.0221629050  -0.4347199790  0.0963542380
O  3.1542307870  -0.4145844690  -0.3648483790
N  1.2544495870  0.6735197810  0.1982951670
H  0.3132048670  0.6010655670  0.5632014720
C  1.7470323810  1.9662460470  -0.2293174730
H  2.0343206160  1.9496723840  -1.2808688130
H  2.6247713010  2.2630095130  0.3449160340
H  0.9611764500  2.7028462240  -0.0831699550
H  -4.2823487140  -0.2786031140  -0.6174515800
H  -4.0765097110  0.4454129620  0.9408674200
H  -2.5189562420  -0.6860278760  -2.0635646200
H  -1.4342676490  -1.6273507230  -1.0302735430
H  -0.9215151980  -0.0517948810  -1.6059632970
O  -1.5974825430  0.4244422250  0.8846415590
C  -2.3254004120  0.0068814430  -0.0043765000
N  -3.6747209030  0.0641475250  0.1019686280
C  -1.7818076470  -0.6219360110  -1.2664265450