22
charge=0, multiplicity=1, basis=def2-QZVPPD, AUX_BASIS_CORR=rimp2-def2-QZVPPD, SCF_ALGORITHM=GDM, xc_grid=000099000590, mem_total=15000, num_basis=969, num_pairs=376804, num_threads=4
H  4.0846073230  -0.3348490660  -0.0685231150
H  3.5359317580  1.0565112170  0.8743754100
H  3.3330498800  -0.5888198790  1.5051248820
H  1.2577391410  0.0632659740  0.6194675690
H  0.8376591670  0.6092019450  -1.6053184390
H  2.5476322920  0.4144267400  -1.9828992410
H  2.0180444690  1.7855004710  -0.9991909960
C  3.2971301470  0.0169978040  0.6008763810
N  2.0024269600  -0.1335285760  -0.0389371170
C  1.8449091070  0.7176306680  -1.2042437150
C  -2.4677684620  1.4504864030  -0.2044989050
H  -1.8488387090  2.2801175620  -0.5416527020
H  -3.1537125080  1.1713454500  -1.0020859830
H  -3.0395320310  1.7963865220  0.6543302410
C  -1.5615925050  0.3227128090  0.2394505360
O  -0.7537787280  0.4696826330  1.1464172250
N  -1.6928788090  -0.8470036580  -0.4272942350
H  -2.3778395730  -0.9121315850  -1.1565189380
C  -0.8973227950  -2.0210035090  -0.1001535740
H  0.1619033100  -1.8354800060  -0.2729313530
H  -1.2288593530  -2.8471680500  -0.7231519310
H  -1.0305802700  -2.2889195900  0.9471427250