4
charge=0, multiplicity=1, basis=def2-QZVPPD, AUX_BASIS_CORR=rimp2-def2-QZVPPD, SCF_ALGORITHM=GDM, xc_grid=000099000590, mem_total=3750, num_basis=192, num_pairs=18800, num_threads=1
C  -3.1263059420  -0.3237831580  -0.0850351800
H  -2.3701661800  0.4285126070  -0.0285052610
C  -3.9772811780  -1.1630855020  -0.1466801620
H  -4.7292335400  -1.9096171130  -0.2021882670