3
charge=0, multiplicity=1, basis=def2-QZVPPD, AUX_BASIS_CORR=rimp2-def2-QZVPPD, SCF_ALGORITHM=GDM, xc_grid=000099000590, mem_total=3750, num_basis=132, num_pairs=9017, num_threads=1
O  2.5367363710  0.1829188990  -0.0614514620
H  1.5788545720  0.3319928740  0.0224738710
H  2.9219444780  0.5196915640  0.7499317160