8
charge=0, multiplicity=1, basis=def2-QZVPPD, AUX_BASIS_CORR=rimp2-def2-QZVPPD, SCF_ALGORITHM=GDM, xc_grid=000099000590, mem_total=3750, num_basis=390, num_pairs=75127, num_threads=1
C  -1.6591902870  -0.1194506230  0.0000000000
O  -1.0724715910  -1.1756529920  0.0000000000
O  -1.0344275470  1.0669274840  0.0000000000
H  -0.0674501890  0.9229976380  0.0000000000
C  -3.1539922780  0.0333444360  0.0000000000
H  -3.6237282620  -0.9437693260  0.0000000000
H  -3.4659431750  0.5990650810  -0.8768918460
H  -3.4659431750  0.5990650810  0.8768918460