3
charge=0, multiplicity=1, basis=def2-QZVPPD, AUX_BASIS_CORR=rimp2-def2-QZVPPD, SCF_ALGORITHM=GDM, xc_grid=000099000590, mem_total=3750, num_basis=132, num_pairs=9017, num_threads=1
O  -1.4706681740  0.0576047090  0.0000000000
H  -0.5022751260  -0.0540609650  0.0000000000
H  -1.8316367090  -0.8307095390  0.0000000000