18
charge=0, multiplicity=1, basis=def2-QZVPPD, AUX_BASIS_CORR=rimp2-def2-QZVPPD, SCF_ALGORITHM=GDM, xc_grid=000099000590, mem_total=7500, num_basis=810, num_pairs=269390, num_threads=2
C  1.5997208280  0.0000000000  0.0830879450
O  1.1699947480  0.0000000000  1.2191133500
O  0.8234617670  0.0000000000  -0.9972112390
H  -0.1470253930  0.0000000000  -0.6964765550
C  3.0664368730  0.0000000000  -0.2576024550
H  3.6587152270  0.0000000000  0.6509263670
H  3.3041538090  -0.8767117660  -0.8588008660
H  3.3041538090  0.8767117660  -0.8588008660
H  -2.8090618840  -1.2793344520  -1.0736457600
H  -3.2726905710  -1.2682175570  0.6335274510
H  -1.7856080110  -2.0859559390  0.1161359360
H  -1.1625905210  0.0000000000  0.9924204000
H  -1.7856080110  2.0859559390  0.1161359360
H  -2.8090618840  1.2793344520  -1.0736457600
H  -3.2726905710  1.2682175570  0.6335274510
C  -2.4222619030  -1.2204859380  -0.0564720390
N  -1.6364036550  0.0000000000  0.0951141340
C  -2.4222619030  1.2204859380  -0.0564720390