4
charge=0, multiplicity=1, basis=def2-QZVPPD, AUX_BASIS_CORR=rimp2-def2-QZVPPD, SCF_ALGORITHM=GDM, xc_grid=000099000590, mem_total=3750, num_basis=192, num_pairs=18800, num_threads=1
C  -2.0115483490  0.2831309030  -0.0000001310
H  -1.0577417610  0.7624686070  -0.0000003670
C  -3.0704599290  -0.2748767300  0.0000000580
H  -4.0132363940  -0.7618559860  0.0000002260