15
charge=0, multiplicity=1, basis=def2-QZVPPD, AUX_BASIS_CORR=rimp2-def2-QZVPPD, SCF_ALGORITHM=GDM, xc_grid=000099000590, mem_total=7500, num_basis=747, num_pairs=231381, num_threads=2
C  -1.7676779140  -0.1395275950  -0.0247946040
O  -0.9585032350  -1.0370229110  -0.0695462830
O  -1.4497707610  1.1491383680  -0.2053871670
H  -0.4896697970  1.2233281440  -0.3694856600
C  -3.2351494380  -0.3220465240  0.2400873640
H  -3.4599697750  -1.3763267730  0.3555855080
H  -3.5130207270  0.2197018610  1.1433127980
H  -3.8143695550  0.0988425680  -0.5804164870
H  2.6456228620  -0.9907901900  -1.4853199190
H  2.8916819700  -1.6449724830  0.1815614830
H  1.2829683620  -1.7387764720  -0.6065096150
C  2.2070710110  -1.1734783100  -0.5117363270
N  1.7928637470  0.1370257670  0.0601026050
O  1.3426858080  0.9660877800  -0.7267528400
O  1.8755534150  0.2944265300  1.2573667270