24
charge=0, multiplicity=1, basis=def2-QZVPPD, AUX_BASIS_CORR=rimp2-def2-QZVPPD, SCF_ALGORITHM=GDM, xc_grid=000099000590, mem_total=30000, num_basis=1152, num_pairs=518368, num_threads=8
H  -0.5681638010  1.2068408500  0.0000015720
H  -2.9493845800  2.5059129550  0.0000022070
H  -4.8544870580  0.5748325000  -0.0000009070
H  -3.5244877320  -1.7858688160  -0.0000031340
N  -1.7923728430  -0.5386145310  -0.0000010240
C  -1.5673823560  0.8120995930  0.0000007550
C  -2.7896973060  1.4420210380  0.0000009600
C  -3.7884484570  0.4302982060  -0.0000006290
C  -3.1397727470  -0.7821102970  -0.0000017790
H  -1.0698412220  -1.2443577270  -0.0000007060
H  1.5407900000  -0.8736879710  -2.1403369470
H  3.0931941130  2.4960137250  -0.0000029200
H  2.5748362770  1.3573012370  -2.1388931820
H  1.5407873640  -0.8736816410  2.1403392000
H  0.9539836680  -2.8171318480  -0.8297574210
H  2.5748338220  1.3573075580  2.1388899880
H  0.9539881850  -2.8171329600  0.8297612290
C  2.6483492490  1.5121058240  -0.0000017240
C  2.3577148160  0.8712221190  -1.1984160980
C  1.7808928830  -0.3900101480  -1.2028718440
C  1.4864961060  -1.0320945450  0.0000013090
C  1.7808916190  -0.3900067350  1.2028730140
C  2.3577135760  0.8712254870  1.1984141800
N  0.8070396110  -2.2637426770  0.0000026880