3
charge=0, multiplicity=1, basis=def2-QZVPPD, AUX_BASIS_CORR=rimp2-def2-QZVPPD, SCF_ALGORITHM=GDM, xc_grid=000099000590, mem_total=3750, num_basis=132, num_pairs=9017, num_threads=1
O  -2.7349928150  -0.6154363030  0.0760226840
H  -1.7734333110  -0.6497823380  -0.0231921020
H  -3.0827649850  -1.1936242010  -0.6059490930