13
charge=0, multiplicity=1, basis=def2-QZVPPD, AUX_BASIS_CORR=rimp2-def2-QZVPPD, SCF_ALGORITHM=GDM, xc_grid=000099000590, mem_total=7500, num_basis=642, num_pairs=191865, num_threads=2
H  -3.0910101300  -2.0421414710  -0.0000004250
H  -3.9016984880  2.1750537480  0.0000003170
H  -4.7103949690  -0.1676259490  -0.0000002090
H  0.1406669220  0.7580685010  0.0000004270
H  0.3767261320  -1.5463349560  0.0000002050
H  -1.4644913500  2.6192536270  0.0000005660
C  -3.1980886070  1.3556183680  0.0000002110
C  -3.6493594190  0.0396477420  -0.0000000770
C  -2.7513341050  -1.0166963990  -0.0000001860
C  -1.3814801910  -0.7624880660  0.0000000400
C  -0.9205125390  0.5532245680  0.0000002880
C  -1.8314973850  1.6022918420  0.0000003720
O  -0.5442821620  -1.8360755750  -0.0000000010