23
charge=0, multiplicity=1, basis=def2-QZVPPD, AUX_BASIS_CORR=rimp2-def2-QZVPPD, SCF_ALGORITHM=GDM, xc_grid=000099000590, mem_total=30000, num_basis=1092, num_pairs=454822, num_threads=8
H  2.3498502070  2.0140542760  -1.1004209680
H  4.1249148810  -1.5042521950  0.6069878400
H  4.3513270320  0.6381188110  -0.6185415410
H  -0.1050793660  -0.8714041590  0.8753098470
H  -0.8997856580  1.0340979940  -0.1681692700
H  1.8813322680  -2.2473971200  1.3484629360
C  3.2535959690  -0.9018167800  0.3963579070
C  3.3773328150  0.3016048710  -0.2912722570
C  2.2632217600  1.0793554380  -0.5656968380
C  0.9994159550  0.6601524110  -0.1497843610
C  0.8702024300  -0.5450746840  0.5434953930
C  1.9945942920  -1.3164661030  0.8101031980
O  -0.0589194770  1.4545221340  -0.4423369700
H  -2.6220428500  0.6319609210  2.2797752120
H  -4.1967684010  0.1210693750  1.5886712900
H  -3.5249607880  1.7546541600  1.2755300730
H  -3.0409765030  -1.1340383340  -2.3643987590
H  -1.4621337370  -0.5838970670  -1.7204789960
H  -2.1008771220  -2.2154640430  -1.3521627340
C  -3.2901887600  0.7004204820  1.4212498570
N  -2.5618168000  0.2355218290  0.2455225920
N  -3.0905665110  -0.7058944980  -0.3428477650
C  -2.3577656900  -1.1689337210  -1.5163138160