3
charge=0, multiplicity=1, basis=def2-QZVPPD, AUX_BASIS_CORR=rimp2-def2-QZVPPD, SCF_ALGORITHM=GDM, xc_grid=000099000590, mem_total=3750, num_basis=132, num_pairs=9017, num_threads=1
O  3.5737974100  0.5432119420  0.0000000000
H  4.1422680220  0.4319013410  0.7668204590
H  4.1422680220  0.4319013410  -0.7668204590