12
charge=0, multiplicity=1, basis=def2-QZVPPD, AUX_BASIS_CORR=rimp2-def2-QZVPPD, SCF_ALGORITHM=GDM, xc_grid=000099000590, mem_total=3750, num_basis=585, num_pairs=156577, num_threads=1
H  -2.8183895810  -0.6533557270  -0.8888711350
H  -2.8183895810  -0.6533557270  0.8888711350
H  -3.6683313810  0.6356251500  0.0000000000
H  1.4158939020  -1.3578868880  0.8850425400
H  1.4158939020  -1.3578868880  -0.8850425400
H  0.6507161800  -2.7078826790  0.0000000000
O  -1.6660704370  0.8421125310  0.0000000000
C  -0.4394016980  0.3257828660  0.0000000000
O  0.5396133740  1.0280104830  0.0000000000
O  -0.4407739040  -1.0093149800  0.0000000000
C  0.8552746370  -1.6433774600  0.0000000000
C  -2.8102701850  -0.0275433370  0.0000000000