9
charge=0, multiplicity=1, basis=def2-QZVPPD, AUX_BASIS_CORR=rimp2-def2-QZVPPD, SCF_ALGORITHM=GDM, xc_grid=000099000590, mem_total=3750, num_basis=393, num_pairs=72109, num_threads=1
O  -2.0118513770  0.1724865480  -0.0574643380
H  -1.1151769590  -0.1858262440  0.0332811390
H  -2.4917099770  -0.1446304200  0.7099365740
O  0.7207654280  -0.6451707900  0.0535690110
H  0.9516926720  -1.2130760490  -0.6850002660
C  1.5128208070  0.5430622460  -0.0006955590
H  1.2011447220  1.1629823320  0.8349945630
H  1.3457287170  1.0959702440  -0.9265679280
H  2.5752967030  0.3164932860  0.1034761980