4
charge=0, multiplicity=1, basis=def2-QZVPPD, AUX_BASIS_CORR=rimp2-def2-QZVPPD, SCF_ALGORITHM=GDM, xc_grid=000099000590, mem_total=3750, num_basis=192, num_pairs=18800, num_threads=1
C  2.5514187000  -0.5100748250  0.0000000000
H  1.5096171830  -0.7341557880  0.0000000000
C  3.7170056720  -0.2400300140  0.0000000000
H  4.7525016920  -0.0077639000  0.0000000000