22
charge=0, multiplicity=1, basis=def2-QZVPPD, AUX_BASIS_CORR=rimp2-def2-QZVPPD, SCF_ALGORITHM=GDM, xc_grid=000099000590, mem_total=15000, num_basis=999, num_pairs=392817, num_threads=4
C  1.2760265240  -1.5190772410  -0.9753603740
H  0.1986890740  -1.3917236570  -1.0595701740
H  1.4881714050  -2.4473068850  -0.4473289880
H  1.7076619430  -1.6046264650  -1.9708753450
C  1.9586974750  -0.3781351240  -0.2459943180
O  3.1686759250  -0.3521204360  -0.0825716500
N  1.1393570680  0.5978479590  0.2111623000
H  0.1426452840  0.5330695690  0.0507823260
C  1.6650427580  1.7422495360  0.9264373240
H  2.2314299500  1.4280973560  1.8025476480
H  2.3327286630  2.3305937300  0.2966755800
H  0.8333742130  2.3666195340  1.2438793680
H  -2.3923232650  2.1397479500  -1.1737870460
H  -3.5741598430  0.8305592950  -1.4975312060
H  -1.9552569860  0.8388298650  -2.2693182940
H  -2.2360052050  -2.2112022260  1.2300361590
H  -1.0581781330  -0.9084609390  1.5849876140
H  -2.6874953260  -0.9228101090  2.3314508070
C  -2.5206703300  1.0748133490  -1.3677343980
N  -1.9246464930  0.3389558480  -0.2567794870
N  -2.7068179030  -0.4096168200  0.3266248130
C  -2.1106444940  -1.1479500130  1.4347033000