16
charge=0, multiplicity=1, basis=def2-QZVPPD, AUX_BASIS_CORR=rimp2-def2-QZVPPD, SCF_ALGORITHM=GDM, xc_grid=000099000590, mem_total=7500, num_basis=774, num_pairs=252439, num_threads=2
H  -0.9560513710  -2.3544992900  0.0000000000
H  -3.3366773730  1.2199757010  0.0000000000
H  -3.1746231690  -1.2528989620  0.0000000000
H  0.9452818950  1.4707952900  0.0000000000
H  2.0533234170  -0.5406140130  0.0000000000
H  -1.2622442130  2.5738338170  0.0000000000
C  -2.3705254000  0.7370734860  0.0000000000
C  -2.2764729640  -0.6509496300  0.0000000000
C  -1.0394028270  -1.2773905690  0.0000000000
C  0.1260772780  -0.5128814290  0.0000000000
C  0.0399386890  0.8793426380  0.0000000000
C  -1.2057942720  1.4940283610  0.0000000000
O  1.3146548880  -1.1703576180  0.0000000000
O  3.5737974100  0.5432119420  0.0000000000
H  4.1422680220  0.4319013410  0.7668204590
H  4.1422680220  0.4319013410  -0.7668204590