10
charge=0, multiplicity=1, basis=def2-QZVPPD, AUX_BASIS_CORR=rimp2-def2-QZVPPD, SCF_ALGORITHM=GDM, xc_grid=000099000590, mem_total=3750, num_basis=420, num_pairs=87532, num_threads=1
H  -2.2135889270  1.2090063810  1.2752505780
H  -3.7339646930  0.3080211800  1.2658042800
H  -2.3037315220  -0.3496672240  2.0882489860
H  -2.4811498760  -1.4115171610  0.0000000000
H  -2.3037315220  -0.3496672240  -2.0882489860
H  -2.2135889270  1.2090063810  -1.2752505780
H  -3.7339646930  0.3080211800  -1.2658042800
C  -2.6421304300  0.2085049710  1.2174422410
N  -2.1754750100  -0.4473483280  0.0000000000
C  -2.6421304300  0.2085049710  -1.2174422410