26
charge=0, multiplicity=1, basis=def2-QZVPPD, AUX_BASIS_CORR=rimp2-def2-QZVPPD, SCF_ALGORITHM=GDM, xc_grid=000099000590, mem_total=30000, num_basis=1221, num_pairs=571872, num_threads=8
C  -3.4616043960  -1.2766406260  0.0000000000
H  -4.0854057420  -1.4366063730  -0.8776827190
H  -2.6479737050  -1.9996493890  0.0000000000
H  -4.0854057420  -1.4366063730  0.8776827190
C  -2.9820231600  0.1622735900  0.0000000000
O  -3.7637881400  1.1004667440  0.0000000000
N  -1.6390180610  0.3305608100  0.0000000000
H  -1.0426404360  -0.4814486540  0.0000000000
C  -1.0442740730  1.6529457020  0.0000000000
H  -1.3533179420  2.2174363340  -0.8794309040
H  0.0362815920  1.5512617800  0.0000000000
H  -1.3533179420  2.2174363340  0.8794309040
H  1.5333016140  -0.9121110550  2.1406241960
H  3.8671520010  1.9724516190  0.0000000000
H  3.0851181490  0.9955729190  2.1387553980
H  1.5333016140  -0.9121110550  -2.1406241960
H  0.4730522590  -2.6439956040  0.8307266460
H  3.0851181490  0.9955729190  -2.1387553980
H  0.4730522590  -2.6439956040  -0.8307266460
C  3.1922912240  1.1296091980  0.0000000000
C  2.7525690560  0.5797586920  1.1982663030
C  1.8821373490  -0.5000724430  1.2030164690
C  1.4370049030  -1.0498207680  0.0000000000
C  1.8821373490  -0.5000724430  -1.2030164690
C  2.7525690560  0.5797586920  -1.1982663030
N  0.4756907680  -2.0733809840  0.0000000000