4
charge=0, multiplicity=1, basis=def2-QZVPPD, AUX_BASIS_CORR=rimp2-def2-QZVPPD, SCF_ALGORITHM=GDM, xc_grid=000099000590, mem_total=3750, num_basis=162, num_pairs=13492, num_threads=1
N  2.7602907430  -0.4316502150  0.0000000000
H  1.7628743290  -0.6248514510  0.0000000000
H  3.1618416450  -0.8787902710  0.8142640930
H  3.1618416450  -0.8787902710  -0.8142640930