16
charge=0, multiplicity=1, basis=def2-QZVPPD, AUX_BASIS_CORR=rimp2-def2-QZVPPD, SCF_ALGORITHM=GDM, xc_grid=000099000590, mem_total=7500, num_basis=711, num_pairs=213741, num_threads=2
N  -2.2526477130  0.3868352070  -0.3966207010
H  -1.4718929600  -0.0420145190  -0.8821986830
H  -3.0015724860  0.5094643590  -1.0644715320
C  -2.6807100390  -0.4652007730  0.7108777520
H  -3.4946108010  0.0158609540  1.2537030840
H  -3.0145305990  -1.4682027900  0.4193021890
H  -1.8518237900  -0.5866460050  1.4081359520
H  2.9028787460  0.0310886910  1.1421528290
H  2.5846425660  -1.4938809170  0.3885248640
H  -0.1184971990  1.5613206340  0.2136412240
H  1.4657620930  1.8374477970  0.9912602600
H  1.2794899440  1.9926231820  -0.7614401330
O  0.5788085840  -0.7249209800  -0.8571862520
C  1.2536245860  -0.0301268220  -0.1157703730
N  2.3334636230  -0.5328981140  0.5409609010
C  0.9579267030  1.4335234900  0.1175436450