12
charge=0, multiplicity=1, basis=def2-QZVPPD, AUX_BASIS_CORR=rimp2-def2-QZVPPD, SCF_ALGORITHM=GDM, xc_grid=000099000590, mem_total=3750, num_basis=549, num_pairs=141171, num_threads=1
C  0.9223100710  -1.7970096870  0.0000000000
H  1.2227924400  -2.3667880560  -0.8775542760
H  1.2227924400  -2.3667880560  0.8775542760
H  -0.1591001480  -1.6786153650  0.0000000000
C  1.6674959190  -0.4759017300  0.0000000000
O  2.8880298480  -0.4273437570  0.0000000000
N  0.8929538020  0.6338322980  0.0000000000
H  -0.1126818230  0.5417409100  0.0000000000
C  1.4826529570  1.9570004380  0.0000000000
H  2.1089052760  2.1075414250  -0.8792299040
H  2.1089052760  2.1075414250  0.8792299040
H  0.6838042340  2.6940537470  0.0000000000