10
charge=0, multiplicity=1, basis=def2-QZVPPD, AUX_BASIS_CORR=rimp2-def2-QZVPPD, SCF_ALGORITHM=GDM, xc_grid=000099000590, mem_total=3750, num_basis=423, num_pairs=84378, num_threads=1
O  -1.9525732000  0.1836871120  0.0000000000
H  -1.0746469130  -0.2472984040  0.0000000000
H  -2.5918025990  -0.5308678440  0.0000000000
N  0.7821521080  -0.7091797550  0.0000000000
H  1.0594894420  -1.2435411270  0.8129439260
H  1.0594894420  -1.2435411270  -0.8129439260
C  1.4238625690  0.6120346270  0.0000000000
H  1.0941590540  1.1659498440  -0.8765706800
H  2.5170907720  0.5796061010  0.0000000000
H  1.0941590540  1.1659498440  0.8765706800