14
charge=0, multiplicity=1, basis=def2-QZVPPD, AUX_BASIS_CORR=rimp2-def2-QZVPPD, SCF_ALGORITHM=GDM, xc_grid=000099000590, mem_total=3750, num_basis=612, num_pairs=174973, num_threads=1
H  4.8517100440  0.3999207250  -0.2891959980
H  4.3468814830  1.7122164850  0.7820266150
H  3.8046237730  1.6653304490  -0.8986578860
H  1.9668299780  1.5470661890  1.8508166520
H  3.8000294500  -1.2311067270  -1.6771275260
H  2.7845225260  0.0627257520  -2.3152279520
H  2.1542972090  -1.5821556980  -2.2115260070
H  3.0132313590  0.3042783280  2.5049297600
H  1.3838983460  -0.1274919790  1.9391103420
C  2.8101387470  0.2477017250  0.3776897500
N  2.2482829830  -0.6081120400  -0.3752088950
C  2.7766150740  -0.8467506160  -1.7081016020
C  2.2506082450  0.4973781940  1.7473297870
C  4.0220485110  1.0553303640  -0.0201979300