4
charge=0, multiplicity=1, basis=def2-QZVPPD, AUX_BASIS_CORR=rimp2-def2-QZVPPD, SCF_ALGORITHM=GDM, xc_grid=000099000590, mem_total=3750, num_basis=162, num_pairs=13492, num_threads=1
N  -3.6663468570  -0.5133771100  0.0000000000
H  -4.4460917170  0.1327931650  0.0000000000
H  -3.7621990850  -1.1037814310  0.8169496610
H  -3.7621990850  -1.1037814310  -0.8169496610