6
charge=0, multiplicity=1, basis=def2-QZVPPD, AUX_BASIS_CORR=rimp2-def2-QZVPPD, SCF_ALGORITHM=GDM, xc_grid=000099000590, mem_total=3750, num_basis=261, num_pairs=34660, num_threads=1
O  -2.3307002490  0.3288013540  0.0000000000
H  -1.4635437360  -0.1085094010  0.0000000000
C  -3.3374578610  -0.6628133880  0.0000000000
H  -4.3017859950  -0.1566165910  0.0000000000
H  -3.2868875850  -1.3023623720  0.8874441050
H  -3.2868875850  -1.3023623720  -0.8874441050