3
charge=0, multiplicity=1, basis=def2-QZVPPD, AUX_BASIS_CORR=rimp2-def2-QZVPPD, SCF_ALGORITHM=GDM, xc_grid=000099000590, mem_total=3750, num_basis=132, num_pairs=9017, num_threads=1
O  3.2311217920  -0.0282382420  0.0000000000
H  3.7624850810  0.2004831740  -0.7665410200
H  3.7624850810  0.2004831740  0.7665410200