10
charge=0, multiplicity=1, basis=def2-QZVPPD, AUX_BASIS_CORR=rimp2-def2-QZVPPD, SCF_ALGORITHM=GDM, xc_grid=000099000590, mem_total=3750, num_basis=420, num_pairs=87532, num_threads=1
H  -2.8090618840  -1.2793344520  -1.0736457600
H  -3.2726905710  -1.2682175570  0.6335274510
H  -1.7856080110  -2.0859559390  0.1161359360
H  -1.1625905210  0.0000000000  0.9924204000
H  -1.7856080110  2.0859559390  0.1161359360
H  -2.8090618840  1.2793344520  -1.0736457600
H  -3.2726905710  1.2682175570  0.6335274510
C  -2.4222619030  -1.2204859380  -0.0564720390
N  -1.6364036550  0.0000000000  0.0951141340
C  -2.4222619030  1.2204859380  -0.0564720390