9
charge=0, multiplicity=1, basis=def2-QZVPPD, AUX_BASIS_CORR=rimp2-def2-QZVPPD, SCF_ALGORITHM=GDM, xc_grid=000099000590, mem_total=3750, num_basis=420, num_pairs=86766, num_threads=1
H  -4.2823487140  -0.2786031140  -0.6174515800
H  -4.0765097110  0.4454129620  0.9408674200
H  -2.5189562420  -0.6860278760  -2.0635646200
H  -1.4342676490  -1.6273507230  -1.0302735430
H  -0.9215151980  -0.0517948810  -1.6059632970
O  -1.5974825430  0.4244422250  0.8846415590
C  -2.3254004120  0.0068814430  -0.0043765000
N  -3.6747209030  0.0641475250  0.1019686280
C  -1.7818076470  -0.6219360110  -1.2664265450