10
charge=0, multiplicity=1, basis=def2-QZVPPD, AUX_BASIS_CORR=rimp2-def2-QZVPPD, SCF_ALGORITHM=GDM, xc_grid=000099000590, mem_total=3750, num_basis=453, num_pairs=92394, num_threads=1
N  -2.4878450630  -0.1248849450  0.0000000000
H  -3.0635693410  0.0498740180  -0.8139718530
H  -1.7433267450  0.5632393790  0.0000000000
H  -3.0635693410  0.0498740180  0.8139718530
H  -0.1827528310  -1.2105319920  0.0000000000
H  1.3346794130  -1.6651376760  -0.8759709840
H  1.3346794130  -1.6651376760  0.8759709840
C  0.9053760470  -1.1754777360  0.0000000000
N  1.4303970100  0.2036940350  0.0000000000
O  0.5852598930  1.0577310290  0.0000000000