12
charge=0, multiplicity=1, basis=def2-QZVPPD, AUX_BASIS_CORR=rimp2-def2-QZVPPD, SCF_ALGORITHM=GDM, xc_grid=000099000590, mem_total=3750, num_basis=549, num_pairs=141210, num_threads=1
C  -1.2052009960  -0.8710421680  -1.4497378190
H  -0.4323034240  -0.2198651210  -1.8508091470
H  -1.8929418630  -1.1506272320  -2.2448876340
H  -0.7111973630  -1.7682508820  -1.0795979160
C  -1.8831244780  -0.1770055250  -0.2915593680
O  -1.2485343360  0.3497520730  0.6167620650
N  -3.2332833190  -0.1759055600  -0.2952643080
H  -3.7184134330  -0.6206050460  -1.0519318800
C  -3.9993437460  0.4358726160  0.7764416610
H  -3.7500263210  1.4911361330  0.8721691090
H  -5.0571652580  0.3365493260  0.5511961850
H  -3.7878035790  -0.0473834460  1.7290520980