11
charge=0, multiplicity=1, basis=def2-QZVPPD, AUX_BASIS_CORR=rimp2-def2-QZVPPD, SCF_ALGORITHM=GDM, xc_grid=000099000590, mem_total=3750, num_basis=519, num_pairs=126214, num_threads=1
H  -0.7188109020  1.6448654770  -1.2225945050
H  -1.8611358150  2.7131980830  -0.3589855860
H  -2.4562736320  1.5106054860  -1.5366717650
H  -0.7744354550  -1.4351735930  1.6742103420
C  -1.6643751470  -0.4920279400  0.0243391960
O  -1.8336840190  0.8140374280  0.3229300560
C  -1.7076726250  1.7239402810  -0.7769524430
C  -1.7724827090  -1.3591421430  1.2410906560
O  -1.4272467490  -0.8776340110  -1.0936039620
H  -2.4452090830  -0.9291488660  1.9776852880
H  -2.1019080120  -2.3512854930  0.9481515230