6
charge=0, multiplicity=1, basis=def2-QZVPPD, AUX_BASIS_CORR=rimp2-def2-QZVPPD, SCF_ALGORITHM=GDM, xc_grid=000099000590, mem_total=3750, num_basis=288, num_pairs=41922, num_threads=1
H  -1.5553571170  1.5073347180  1.1869607910
H  -2.0723793970  1.7181466480  -0.4956101510
H  -0.3416469140  1.5005766730  -0.1215087300
C  -1.5386768840  -1.3411048290  -0.1071413200
N  -1.4845942390  -0.1867242460  0.0192660370
C  -1.3570891440  1.2210278130  0.1562095040