25
charge=0, multiplicity=1, basis=def2-QZVPPD, AUX_BASIS_CORR=rimp2-def2-QZVPPD, SCF_ALGORITHM=GDM, xc_grid=000099000590, mem_total=30000, num_basis=1098, num_pairs=485018, num_threads=8
C  -1.5113644160  -1.8101994270  0.0000000000
H  -1.9086449810  -2.3167647420  0.8777908290
H  -1.9086449810  -2.3167647420  -0.8777908290
H  -0.4266258940  -1.8890870070  0.0000000000
C  -2.0051619350  -0.3761756250  0.0000000000
O  -3.1982530080  -0.1106251750  0.0000000000
N  -1.0436276830  0.5741735820  0.0000000000
H  -0.0613247770  0.3075449010  0.0000000000
C  -1.3927436120  1.9795604770  0.0000000000
H  -1.9829027300  2.2392477490  -0.8789839920
H  -0.4778906800  2.5669146170  0.0000000000
H  -1.9829027300  2.2392477490  0.8789839920
H  3.3554290180  -0.9347177720  -1.2907907010
H  1.9318411120  -0.2308621940  -2.0832187790
H  1.7838517000  -1.7512321130  -1.2001086650
H  1.7838517000  -1.7512321130  1.2001086650
H  3.3554290180  -0.9347177720  1.2907907010
H  1.9318411120  -0.2308621940  2.0832187790
H  3.5982581890  1.2651745190  0.0000000000
H  2.1713757580  1.8382129910  0.8834848190
C  2.2699625810  -0.7770994410  -1.2041575170
N  1.9117528040  -0.0411270840  0.0000000000
C  2.2699625810  -0.7770994410  1.2041575170
C  2.4983077460  1.2919207010  0.0000000000
H  2.1713757580  1.8382129910  -0.8834848190