4
charge=0, multiplicity=1, basis=def2-QZVPPD, AUX_BASIS_CORR=rimp2-def2-QZVPPD, SCF_ALGORITHM=GDM, xc_grid=000099000590, mem_total=3750, num_basis=162, num_pairs=13492, num_threads=1
N  2.6025814230  0.0000000000  -0.0564897430
H  2.9094598090  0.0000000000  0.9082065730
H  3.0047634360  -0.8152862260  -0.5014101600
H  3.0047634360  0.8152862260  -0.5014101600