19
charge=0, multiplicity=1, basis=def2-QZVPPD, AUX_BASIS_CORR=rimp2-def2-QZVPPD, SCF_ALGORITHM=GDM, xc_grid=000099000590, mem_total=15000, num_basis=870, num_pairs=297329, num_threads=4
H  -1.0977021120  2.1023328040  0.0000000000
H  -3.7034588470  1.3561074360  0.0000000000
H  -3.7034588470  -1.3561074360  0.0000000000
H  -1.0977021120  -2.1023328040  0.0000000000
N  -0.7398381890  0.0000000000  0.0000000000
C  -1.5291348340  1.1177861240  0.0000000000
C  -2.8429676160  0.7104790240  0.0000000000
C  -2.8429676160  -0.7104790240  0.0000000000
C  -1.5291348340  -1.1177861240  0.0000000000
H  0.2718256280  0.0000000000  0.0000000000
H  2.2648962080  0.0000000000  -2.0227788450
H  3.5877407220  0.8901362790  -1.2347000780
H  3.5877407220  -0.8901362790  -1.2347000780
H  2.2648962080  0.0000000000  2.0227788450
H  3.5877407220  0.8901362790  1.2347000780
H  3.5877407220  -0.8901362790  1.2347000780
C  2.9533510950  0.0000000000  -1.1819429850
O  2.1761457830  0.0000000000  0.0000000000
C  2.9533510950  0.0000000000  1.1819429850