22
charge=0, multiplicity=1, basis=def2-QZVPPD, AUX_BASIS_CORR=rimp2-def2-QZVPPD, SCF_ALGORITHM=GDM, xc_grid=000099000590, mem_total=30000, num_basis=1092, num_pairs=461318, num_threads=8
H  -3.0910101300  -2.0421414710  -0.0000004250
H  -3.9016984880  2.1750537480  0.0000003170
H  -4.7103949690  -0.1676259490  -0.0000002090
H  0.1406669220  0.7580685010  0.0000004270
H  0.3767261320  -1.5463349560  0.0000002050
H  -1.4644913500  2.6192536270  0.0000005660
C  -3.1980886070  1.3556183680  0.0000002110
C  -3.6493594190  0.0396477420  -0.0000000770
C  -2.7513341050  -1.0166963990  -0.0000001860
C  -1.3814801910  -0.7624880660  0.0000000400
C  -0.9205125390  0.5532245680  0.0000002880
C  -1.8314973850  1.6022918420  0.0000003720
O  -0.5442821620  -1.8360755750  -0.0000000010
H  3.5528215850  1.7384738300  -1.3677216750
H  3.5528230650  1.7384718140  1.3677229850
H  2.3728054690  -0.6334225170  -2.0511855700
H  2.3728070140  -0.6334251290  2.0511846570
C  3.1729910380  0.9717988160  0.7169707030
C  3.1729903580  0.9717998090  -0.7169701590
C  2.5980176250  -0.1902713370  -1.0998354210
O  2.2388319250  -0.9196335720  -0.0000005890
C  2.5980186110  -0.1902728390  1.0998349080