6
charge=0, multiplicity=1, basis=def2-QZVPPD, AUX_BASIS_CORR=rimp2-def2-QZVPPD, SCF_ALGORITHM=GDM, xc_grid=000099000590, mem_total=3750, num_basis=261, num_pairs=34660, num_threads=1
O  2.9185724530  0.0000000000  -0.6056370200
H  1.9490941480  0.0000000000  -0.5049131360
C  3.4972534840  0.0000000000  0.6816775750
H  4.5796076950  0.0000000000  0.5608966640
H  3.2210515140  0.8872491470  1.2630316680
H  3.2210515140  -0.8872491470  1.2630316680