6
charge=0, multiplicity=1, basis=def2-QZVPPD, AUX_BASIS_CORR=rimp2-def2-QZVPPD, SCF_ALGORITHM=GDM, xc_grid=000099000590, mem_total=3750, num_basis=291, num_pairs=42688, num_threads=1
H  -1.6252518370  -0.1661408280  1.6425428800
H  -2.6396439520  -1.2596062200  0.6432478970
H  -3.2955904510  0.3043398570  1.2856772320
C  -2.4240566030  -0.2238047070  0.9001924380
N  -1.9293119760  0.5313221210  -0.2600807850
O  -1.6705246210  -0.1444075420  -1.2196983520