21
charge=0, multiplicity=1, basis=def2-QZVPPD, AUX_BASIS_CORR=rimp2-def2-QZVPPD, SCF_ALGORITHM=GDM, xc_grid=000099000590, mem_total=15000, num_basis=1023, num_pairs=389843, num_threads=4
H  2.1908485660  0.1022629700  2.1014769740
H  4.7810493520  -0.1898476700  1.3562983040
H  4.7810387720  -0.1898809720  -1.3563083780
H  2.1908320590  0.1022115150  -2.1014739000
N  1.8347640320  0.1425623220  0.0000024290
C  2.6193864930  0.0531514090  1.1167049680
C  3.9259795930  -0.0942074940  0.7103797190
C  3.9259740770  -0.0942249430  -0.7103853870
C  2.6193777620  0.0531240180  -1.1167040240
H  0.8219534060  0.2465544750  0.0000045890
H  -3.3688011030  -2.3172591660  0.0000186780
H  -0.9272875460  -1.8509041950  0.0000165680
C  -3.8871078890  -0.2243072010  0.0000010340
C  -3.0092587350  -1.2990378230  0.0000104580
C  -1.6454579710  -1.0405499270  0.0000093400
N  -1.1393520000  0.1931663630  -0.0000002400
C  -1.9885701390  1.2209836140  -0.0000094960
C  -3.3675643630  1.0626254190  -0.0000092070
H  -1.5452820280  2.2085745820  -0.0000172740
H  -4.0133153170  1.9281364180  -0.0000166340
H  -4.9556062690  -0.3863677280  0.0000015810