17
charge=0, multiplicity=1, basis=def2-QZVPPD, AUX_BASIS_CORR=rimp2-def2-QZVPPD, SCF_ALGORITHM=GDM, xc_grid=000099000590, mem_total=15000, num_basis=834, num_pairs=281160, num_threads=4
C  3.4972633900  0.0050711020  -0.1646483720
H  2.6468667290  -0.6180058840  -0.0104247450
C  4.4470066830  0.7125269270  -0.3351721220
H  5.2901142190  1.3385971580  -0.4873622990
H  0.7373139570  1.0093741640  0.8150275370
H  -3.3290296400  1.7925121630  -0.3150950230
H  -1.1313509490  2.5989700030  0.4934757190
H  -1.7764968560  -2.1987402370  -0.4812751870
H  0.4070249740  -2.4235948710  0.1655646290
H  -3.6411837500  -0.6160242790  -0.7999922160
C  -2.5132184270  1.0990536890  -0.1745116670
C  -1.2784369140  1.5498692520  0.2797049850
C  -0.2246819520  0.6669014430  0.4640401430
C  -0.4103458270  -0.6831383410  0.1880736450
C  -1.6395466190  -1.1460724600  -0.2675001240
C  -2.6873288340  -0.2514296390  -0.4462080370
O  0.6577239670  -1.5215807090  0.3815483820