18
charge=0, multiplicity=1, basis=def2-QZVPPD, AUX_BASIS_CORR=rimp2-def2-QZVPPD, SCF_ALGORITHM=GDM, xc_grid=000099000590, mem_total=7500, num_basis=837, num_pairs=263747, num_threads=2
C  1.2704464500  -1.8254739980  -0.0000044490
H  0.1848270440  -1.7550805810  0.0000036040
H  1.5964081500  -2.3808725070  0.8778024320
H  1.5963945250  -2.3808561910  -0.8778264730
C  1.9563409540  -0.4734111050  -0.0000064240
O  3.1740482860  -0.3685865490  0.0000038410
N  1.1333124590  0.6001189140  0.0000152160
H  0.1348935220  0.4655378710  0.0000144130
C  1.6606507920  1.9485503930  -0.0000092110
H  2.2790491600  2.1281920140  -0.8794658110
H  0.8283077180  2.6476052620  -0.0000281340
H  2.2790463360  2.1282333250  0.8794407760
H  -4.7460528880  -1.2517678360  0.0000285130
H  -4.9894910960  0.2625003870  -0.8857088900
H  -4.9895037540  0.2625534880  0.8856689650
C  -4.5404004810  -0.1829588960  -0.0000035070
C  -3.1062513490  0.0472098500  0.0000009620
N  -1.9736507720  0.2286480780  0.0000048820