12
charge=0, multiplicity=1, basis=def2-QZVPPD, AUX_BASIS_CORR=rimp2-def2-QZVPPD, SCF_ALGORITHM=GDM, xc_grid=000099000590, mem_total=3750, num_basis=585, num_pairs=156683, num_threads=1
H  3.6138457600  0.1122412200  -0.6342746850
H  2.4528597480  1.0860530830  -1.5620318560
H  3.5553182060  1.8782193690  -0.4084922150
H  -0.6709026380  -1.6518431160  -0.6722826740
H  0.4251215990  -2.6215660590  0.3449793670
H  0.6343820900  -2.6202955090  -1.4280961390
O  2.0316872050  0.9022148460  0.4734054170
C  1.1509513740  -0.1007276080  0.5141407950
O  0.3493352660  -0.2062330630  1.4037085720
O  1.2774886360  -0.9333486610  -0.5248546880
C  0.3424248120  -2.0324006560  -0.5647415450
C  2.9696297650  0.9878157120  -0.6104163020