7
charge=0, multiplicity=1, basis=def2-QZVPPD, AUX_BASIS_CORR=rimp2-def2-QZVPPD, SCF_ALGORITHM=GDM, xc_grid=000099000590, mem_total=3750, num_basis=291, num_pairs=42987, num_threads=1
N  -2.3503388630  0.6099751350  0.0000000000
H  -2.8850647060  0.8931703170  0.8109220960
H  -2.8850647060  0.8931703170  -0.8109220960
C  -2.1476710270  -0.8454488810  0.0000000000
H  -1.5669925800  -1.1262400240  -0.8764846060
H  -3.0725359350  -1.4306024510  0.0000000000
H  -1.5669925800  -1.1262400240  0.8764846060