10
charge=0, multiplicity=1, basis=def2-QZVPPD, AUX_BASIS_CORR=rimp2-def2-QZVPPD, SCF_ALGORITHM=GDM, xc_grid=000099000590, mem_total=3750, num_basis=420, num_pairs=87550, num_threads=1
H  -0.9012760630  -0.8549451890  -1.2660323050
H  -2.6669084870  -0.9494682240  -1.2618869050
H  -1.8444049260  0.3901268070  -2.0866432100
H  -2.5584269270  1.1962459520  0.0000000000
H  -1.8444049260  0.3901268070  2.0866432100
H  -0.9012760630  -0.8549451890  1.2660323050
H  -2.6669084870  -0.9494682240  1.2618869050
C  -1.8125158980  -0.2591810400  -1.2127987050
N  -1.7844480070  0.5465016660  0.0000000000
C  -1.8125158980  -0.2591810400  1.2127987050