10
charge=0, multiplicity=1, basis=def2-QZVPPD, AUX_BASIS_CORR=rimp2-def2-QZVPPD, SCF_ALGORITHM=GDM, xc_grid=000099000590, mem_total=3750, num_basis=480, num_pairs=113330, num_threads=1
H  2.1908485660  0.1022629700  2.1014769740
H  4.7810493520  -0.1898476700  1.3562983040
H  4.7810387720  -0.1898809720  -1.3563083780
H  2.1908320590  0.1022115150  -2.1014739000
N  1.8347640320  0.1425623220  0.0000024290
C  2.6193864930  0.0531514090  1.1167049680
C  3.9259795930  -0.0942074940  0.7103797190
C  3.9259740770  -0.0942249430  -0.7103853870
C  2.6193777620  0.0531240180  -1.1167040240
H  0.8219534060  0.2465544750  0.0000045890