18
charge=0, multiplicity=1, basis=def2-QZVPPD, AUX_BASIS_CORR=rimp2-def2-QZVPPD, SCF_ALGORITHM=GDM, xc_grid=000099000590, mem_total=15000, num_basis=870, num_pairs=305234, num_threads=4
H  1.4888649900  0.4252240490  -2.1026969740
H  3.8263722940  -0.7273658950  -1.3558327040
H  3.8263722940  -0.7273658950  1.3558327040
H  1.4888649900  0.4252240490  2.1026969740
N  1.1702036520  0.5860234190  0.0000000000
C  1.8747172230  0.2311311340  -1.1184167570
C  3.0523896220  -0.3510497690  -0.7104559550
C  3.0523896220  -0.3510497690  0.7104559550
C  1.8747172230  0.2311311340  1.1184167570
H  0.2359915460  0.9712917790  0.0000000000
H  -4.0209361710  0.8599512650  0.0000000000
H  -2.0999566270  -1.9368234980  -0.8767141400
H  -2.0999566270  -1.9368234980  0.8767141400
H  -0.6742447430  -1.3262547020  0.0000000000
O  -1.7524176830  1.0282168370  0.0000000000
C  -2.3584317910  -0.0175296690  0.0000000000
O  -3.7048839380  -0.0545399590  0.0000000000
C  -1.7562505950  -1.3896674550  0.0000000000