23
charge=0, multiplicity=1, basis=def2-QZVPPD, AUX_BASIS_CORR=rimp2-def2-QZVPPD, SCF_ALGORITHM=GDM, xc_grid=000099000590, mem_total=30000, num_basis=1122, num_pairs=474481, num_threads=8
H  3.5993161950  -1.6962696730  0.8559042810
H  5.1830451600  0.4106655190  0.2280657700
H  3.5613890760  2.2445175520  -0.9390079430
H  1.0804091370  1.1481174170  -0.9497908470
N  2.0627525980  -0.4937126510  -0.0086436210
C  3.3468468450  -0.7659407190  0.3805511030
C  4.1262052070  0.3175265580  0.0505138900
C  3.2761549870  1.2785583590  -0.5612115520
C  2.0079522400  0.7481777300  -0.5832162750
H  1.2720077340  -1.1072621980  0.1056314860
H  -0.4308941210  0.2941465010  1.5859753040
H  -3.9493778910  2.1487206540  -0.0267120980
H  -1.9867294550  2.2153069240  1.4824581630
H  -2.7883926300  -1.7661628160  -1.3280544280
H  -0.8908798380  -2.5963203760  -0.3520721760
H  -4.3431831710  0.1465313950  -1.4296275930
C  -3.2706944990  1.3100928020  0.0199963180
C  -2.1686611770  1.3457742630  0.8672944800
C  -1.2914020200  0.2731704140  0.9342363510
C  -1.5217497860  -0.8436534870  0.1403241380
C  -2.6182647540  -0.8925619560  -0.7114428490
C  -3.4909779520  0.1871086090  -0.7664906820
O  -0.6206060700  -1.8793717110  0.2281452330