9
charge=0, multiplicity=1, basis=def2-QZVPPD, AUX_BASIS_CORR=rimp2-def2-QZVPPD, SCF_ALGORITHM=GDM, xc_grid=000099000590, mem_total=3750, num_basis=450, num_pairs=99889, num_threads=1
H  -1.7621330700  2.2242725500  0.3855201840
H  -3.6260796290  0.2202877650  0.3142144560
H  0.6206292760  0.9589414060  -0.1384823780
H  -2.1792108610  -2.0317251580  -0.2436301580
C  -2.5659889350  0.1321470160  0.1572083120
C  -1.5895430840  1.1802830990  0.1945233960
C  -0.3919139150  0.5997935020  -0.0602825270
O  -0.5576372730  -0.7412772840  -0.2540444270
C  -1.8861833390  -1.0063909110  -0.1178377980