11
charge=0, multiplicity=1, basis=def2-QZVPPD, AUX_BASIS_CORR=rimp2-def2-QZVPPD, SCF_ALGORITHM=GDM, xc_grid=000099000590, mem_total=3750, num_basis=516, num_pairs=121016, num_threads=1
H  1.1060724050  1.4419824430  -1.3517041410
H  1.3284571880  2.3152603460  0.1905127000
H  -0.2723327190  1.5943266460  -0.2087462300
C  0.8068226780  1.5078072390  -0.3086414880
O  1.2486616870  0.2933348330  0.3846235300
C  0.6485209880  -0.7859330490  0.0500301790
N  0.1253653450  -1.7797666880  -0.2227193750
N  -2.3831310870  0.4091733450  0.0819055340
H  -2.0014954200  -0.5208880380  -0.0544190670
H  -3.0973448180  0.5472172870  -0.6222704530
H  -2.8509989830  0.4102920320  0.9797978240