6
charge=0, multiplicity=1, basis=def2-QZVPPD, AUX_BASIS_CORR=rimp2-def2-QZVPPD, SCF_ALGORITHM=GDM, xc_grid=000099000590, mem_total=3750, num_basis=261, num_pairs=34660, num_threads=1
O  1.6515627620  -0.2862504070  0.2898548040
H  1.2378631940  0.5834820020  0.3412519300
C  2.9468065330  -0.1558572490  -0.2780873100
H  3.3722545780  -1.1547592560  -0.3441094280
H  3.6023608680  0.4585243790  0.3441448620
H  2.9098448180  0.2732529620  -1.2827777960