17
charge=0, multiplicity=1, basis=def2-QZVPPD, AUX_BASIS_CORR=rimp2-def2-QZVPPD, SCF_ALGORITHM=GDM, xc_grid=000099000590, mem_total=7500, num_basis=837, num_pairs=267827, num_threads=2
H  -0.9470991620  -1.7784784020  0.0000000000
H  -3.6623215360  -1.8337500140  0.0000000000
H  -4.4589897750  0.7590459010  0.0000000000
H  -2.1883009490  2.2383301460  0.0000000000
N  -1.2301366090  0.3316897490  0.0000000000
C  -1.6539570340  -0.9694424190  0.0000000000
C  -3.0290562760  -0.9641241740  0.0000000000
C  -3.4468396060  0.3945634050  0.0000000000
C  -2.3116310490  1.1706357000  0.0000000000
H  -0.2654741800  0.6195820960  0.0000000000
H  4.2077457890  0.6501128410  -0.8871779910
H  4.3414221300  -0.9088683510  0.0000000000
H  4.2077457890  0.6501128410  0.8871779910
C  3.9283997710  0.0908782340  0.0000000000
N  2.4374593460  -0.0173220780  0.0000000000
O  1.8133419150  1.0338368270  0.0000000000
O  1.9412684320  -1.1256938990  0.0000000000