14
charge=0, multiplicity=1, basis=def2-QZVPPD, AUX_BASIS_CORR=rimp2-def2-QZVPPD, SCF_ALGORITHM=GDM, xc_grid=000099000590, mem_total=3750, num_basis=648, num_pairs=178032, num_threads=1
C  -2.2291092620  -0.1499790900  0.0980143790
H  -1.1882350680  -0.3051877360  0.2707789290
C  -3.3971762130  0.0268627730  -0.0924401310
H  -4.4328410780  0.1832839330  -0.2623083770
H  2.0129863370  1.7987484210  0.8781690410
H  1.3065844030  2.5200984450  -0.5951078860
H  0.2376434070  1.9247387180  0.6982038170
H  1.2209449820  -2.4669056780  0.6247863970
H  2.4560246280  -1.6566832040  -0.3791186390
H  0.8075483960  -1.9168901410  -1.0200360290
C  1.1804327320  1.7599183470  0.1738575890
O  1.1666379470  0.5377417410  -0.5340099420
O  0.9705687980  -0.4960789500  0.4810145040
C  1.3957472860  -1.6991153970  -0.1269105060