8
charge=0, multiplicity=1, basis=def2-QZVPPD, AUX_BASIS_CORR=rimp2-def2-QZVPPD, SCF_ALGORITHM=GDM, xc_grid=000099000590, mem_total=3750, num_basis=390, num_pairs=75130, num_threads=1
C  -1.7778982050  -0.1876140330  -0.0144134070
O  -0.8311642520  -0.9421306870  -0.0686330750
O  -1.6657552970  1.1360260850  0.1006528690
H  -0.7167694990  1.3931902770  0.1293546930
C  -3.2149189880  -0.6274093290  -0.0704248660
H  -3.7397115710  -0.2868731660  0.8210211080
H  -3.7048201320  -0.1682340200  -0.9281187210
H  -3.2685595190  -1.7077051590  -0.1463282180