12
charge=0, multiplicity=1, basis=def2-QZVPPD, AUX_BASIS_CORR=rimp2-def2-QZVPPD, SCF_ALGORITHM=GDM, xc_grid=000099000590, mem_total=3750, num_basis=549, num_pairs=118782, num_threads=1
O  2.2711693420  0.6532761940  0.0000000000
H  1.3134804360  0.5334814380  0.0000000000
C  2.8761551210  -0.6243388180  0.0000000000
H  3.9548073640  -0.4762045340  0.0000000000
H  2.6114427960  -1.2081507240  -0.8880858080
H  2.6114427960  -1.2081507240  0.8880858080
H  -3.7198259120  0.8675499550  0.0000000000
H  -3.5935635270  -0.6609945460  -0.8856409400
H  -3.5935635270  -0.6609945460  0.8856409400
C  -3.2641284170  -0.1208802400  0.0000000000
C  -1.8165976100  -0.0004358290  0.0000000000
N  -0.6739488370  0.0956405690  0.0000000000