23
charge=0, multiplicity=1, basis=def2-QZVPPD, AUX_BASIS_CORR=rimp2-def2-QZVPPD, SCF_ALGORITHM=GDM, xc_grid=000099000590, mem_total=30000, num_basis=1098, num_pairs=464530, num_threads=8
H  -2.4850829660  -2.0984087630  -0.8539688670
H  -4.0266887160  1.6337850370  0.6081977010
H  -4.4081340850  -0.6257874650  -0.3354673560
H  0.2021872500  0.9382872600  0.4984193500
H  0.8440028400  -1.1352509540  -0.2854885720
H  -1.7084472290  2.4020915950  1.0223307160
C  -3.1899424470  0.9898904830  0.3805453320
C  -3.4010943150  -0.2792000020  -0.1492946980
C  -2.3316303210  -1.1111540800  -0.4431306710
C  -1.0284361960  -0.6765989440  -0.2070902420
C  -0.8077938170  0.5951262390  0.3220735030
C  -1.8893416200  1.4180235820  0.6123441850
O  -0.0144579970  -1.5278388950  -0.5136680080
H  3.8639203700  -0.3254225030  1.7408671150
H  2.7880539520  -1.7510900000  1.7061335300
H  2.1306656960  -0.1546807520  2.1524863980
H  2.5900973770  2.1353283710  -1.6652472480
H  3.3757861280  0.5651715720  -1.9892884840
H  1.5916727860  0.6777723900  -1.8883805790
C  2.8555173030  -0.6795161070  1.5294909630
O  2.5503790700  -0.5214138210  0.1545313530
O  2.6114176030  0.9177332640  -0.0944105700
C  2.5366795010  1.0609105640  -1.5004032790