10
charge=0, multiplicity=1, basis=def2-QZVPPD, AUX_BASIS_CORR=rimp2-def2-QZVPPD, SCF_ALGORITHM=GDM, xc_grid=000099000590, mem_total=3750, num_basis=420, num_pairs=87483, num_threads=1
H  -2.4705962740  1.1254585610  1.3007167420
H  -3.9662210690  1.8079968160  0.6453756580
H  -2.4060608860  2.1662187110  -0.1192768840
H  -3.4001882620  0.4813078890  -1.3980803030
H  -4.0179503310  -1.6476231960  -0.6367980100
H  -3.4835745200  -1.2139077430  0.9860114450
H  -4.9439499390  -0.4719573460  0.3174350130
C  -2.9864065090  1.3909183260  0.3775527520
N  -3.0741261620  0.2149453990  -0.4793646580
C  -3.9337480460  -0.8254755910  0.0720341430