6
charge=0, multiplicity=1, basis=def2-QZVPPD, AUX_BASIS_CORR=rimp2-def2-QZVPPD, SCF_ALGORITHM=GDM, xc_grid=000099000590, mem_total=3750, num_basis=261, num_pairs=34660, num_threads=1
O  -1.8705642930  -0.7569980800  0.0000000000
H  -0.9243807280  -0.5043801890  0.0000000000
C  -2.6425441090  0.4238454110  0.0000000000
H  -3.6936261550  0.1388817400  0.0000000000
H  -2.4606483850  1.0408687450  -0.8879983230
H  -2.4606483850  1.0408687450  0.8879983230