13
charge=0, multiplicity=1, basis=def2-QZVPPD, AUX_BASIS_CORR=rimp2-def2-QZVPPD, SCF_ALGORITHM=GDM, xc_grid=000099000590, mem_total=7500, num_basis=642, num_pairs=191867, num_threads=2
H  -2.3933484740  -2.0847419090  -0.7356101400
H  -3.8451851490  1.9323235400  -0.2881515460
H  -4.1702726570  -0.3938640320  -1.0787874560
H  0.0200619100  0.8469567810  1.2193854530
H  0.7051922640  -1.3007429420  0.7118986320
H  -1.7374269110  2.5408044420  0.8619977530
C  -3.0722761080  1.1927788670  -0.1389161730
C  -3.2520608600  -0.1141529010  -0.5811195290
C  -2.2636529610  -1.0682029380  -0.3935242370
C  -1.0743058760  -0.7231237130  0.2479583580
C  -0.8915604420  0.5844868690  0.7016628480
C  -1.8882385930  1.5318485810  0.5032573390
O  -0.1357708200  -1.6887271010  0.4050429510