8
charge=0, multiplicity=1, basis=def2-QZVPPD, AUX_BASIS_CORR=rimp2-def2-QZVPPD, SCF_ALGORITHM=GDM, xc_grid=000099000590, mem_total=3750, num_basis=390, num_pairs=75130, num_threads=1
C  -1.8135515230  0.0224925370  0.0000000000
O  -1.4621550120  1.1833846660  0.0000000000
O  -0.9676243750  -1.0036160340  0.0000000000
H  -0.0084392570  -0.6570197720  0.0000000000
C  -3.2543915430  -0.4185108720  0.0000000000
H  -3.4509713110  -1.0344300120  0.8767125600
H  -3.4509713110  -1.0344300120  -0.8767125600
H  -3.9076350960  0.4472697110  0.0000000000