17
charge=0, multiplicity=1, basis=def2-QZVPPD, AUX_BASIS_CORR=rimp2-def2-QZVPPD, SCF_ALGORITHM=GDM, xc_grid=000099000590, mem_total=7500, num_basis=804, num_pairs=268727, num_threads=2
H  0.8948249130  2.3543582970  0.0000000000
H  3.3382925580  -1.1775855120  0.0000000000
H  3.1310435040  1.2926256850  0.0000000000
H  -0.9354045110  -1.5057287640  0.0000000000
H  -2.1009608480  0.4958683030  0.0000000000
H  1.2873885800  -2.5669047980  0.0000000000
C  2.3637894270  -0.7118358860  0.0000000000
C  2.2437943720  0.6745547580  0.0000000000
C  0.9963868120  1.2787717510  0.0000000000
C  -0.1602760100  0.4974539570  0.0000000000
C  -0.0438028810  -0.8945453340  0.0000000000
C  1.2122084040  -1.4880746270  0.0000000000
O  -1.3535893200  1.1331133840  0.0000000000
N  -3.6663468570  -0.5133771100  0.0000000000
H  -4.4460917170  0.1327931650  0.0000000000
H  -3.7621990850  -1.1037814310  0.8169496610
H  -3.7621990850  -1.1037814310  -0.8169496610