20
charge=0, multiplicity=1, basis=def2-QZVPPD, AUX_BASIS_CORR=rimp2-def2-QZVPPD, SCF_ALGORITHM=GDM, xc_grid=000099000590, mem_total=15000, num_basis=999, num_pairs=402785, num_threads=4
H  -2.3109138150  2.0585158380  -0.8896955020
H  -3.8288713290  -1.9214715290  -0.3423647470
H  -4.0658944610  0.3558560860  -1.2884263380
H  -0.1006880080  -0.7660290940  1.4332264000
H  0.6411751420  1.3365054520  0.8481477540
H  -1.8343405970  -2.4720203910  1.0191264980
C  -3.0655650130  -1.1775576190  -0.1685876820
C  -3.1963292130  0.1023523950  -0.6983956230
C  -2.2198417380  1.0626835910  -0.4810530510
C  -1.0961097360  0.7475351660  0.2799560620
C  -0.9616885470  -0.5304398670  0.8227299560
C  -1.9453931980  -1.4850596500  0.5922694020
O  -0.1595964960  1.7178186730  0.4587581900
H  2.4638307550  -0.4283625660  -2.1995758130
H  1.6130801820  0.9842852630  -1.4616443240
H  1.0011893290  -0.6514390000  -1.1802091770
C  1.8944487410  -0.0577793080  -1.3581647750
N  2.7452099830  -0.1816166020  -0.1352468970
O  2.3372465890  0.3571369560  0.8892567430
O  3.7738255290  -0.8165670370  -0.2146099390