4
charge=0, multiplicity=1, basis=def2-QZVPPD, AUX_BASIS_CORR=rimp2-def2-QZVPPD, SCF_ALGORITHM=GDM, xc_grid=000099000590, mem_total=3750, num_basis=162, num_pairs=13492, num_threads=1
N  -2.4878450630  -0.1248849450  0.0000000000
H  -3.0635693410  0.0498740180  -0.8139718530
H  -1.7433267450  0.5632393790  0.0000000000
H  -3.0635693410  0.0498740180  0.8139718530