12
charge=0, multiplicity=1, basis=def2-QZVPPD, AUX_BASIS_CORR=rimp2-def2-QZVPPD, SCF_ALGORITHM=GDM, xc_grid=000099000590, mem_total=3750, num_basis=549, num_pairs=141159, num_threads=1
C  -2.4677684620  1.4504864030  -0.2044989050
H  -1.8488387090  2.2801175620  -0.5416527020
H  -3.1537125080  1.1713454500  -1.0020859830
H  -3.0395320310  1.7963865220  0.6543302410
C  -1.5615925050  0.3227128090  0.2394505360
O  -0.7537787280  0.4696826330  1.1464172250
N  -1.6928788090  -0.8470036580  -0.4272942350
H  -2.3778395730  -0.9121315850  -1.1565189380
C  -0.8973227950  -2.0210035090  -0.1001535740
H  0.1619033100  -1.8354800060  -0.2729313530
H  -1.2288593530  -2.8471680500  -0.7231519310
H  -1.0305802700  -2.2889195900  0.9471427250