13
charge=0, multiplicity=1, basis=def2-QZVPPD, AUX_BASIS_CORR=rimp2-def2-QZVPPD, SCF_ALGORITHM=GDM, xc_grid=000099000590, mem_total=3750, num_basis=582, num_pairs=148036, num_threads=1
C  1.9857494230  0.0000000000  0.1664956860
H  0.9525555450  0.0000000000  0.4400315240
C  3.1398714450  0.0000000000  -0.1507919850
H  4.1641222070  0.0000000000  -0.4281116310
H  -1.2284442600  2.0221082790  0.3723566290
H  -1.1276830270  1.2294615150  -1.2161151450
H  -2.6624599250  1.2259557170  -0.3146247560
H  -1.2284442600  -2.0221082790  0.3723566290
H  -1.1276830270  -1.2294615150  -1.2161151450
H  -2.6624599250  -1.2259557170  -0.3146247560
C  -1.5731048060  1.1763450370  -0.2168831800
O  -1.1759534330  0.0000000000  0.4590404840
C  -1.5731048060  -1.1763450370  -0.2168831800