8
charge=0, multiplicity=1, basis=def2-QZVPPD, AUX_BASIS_CORR=rimp2-def2-QZVPPD, SCF_ALGORITHM=GDM, xc_grid=000099000590, mem_total=3750, num_basis=354, num_pairs=54847, num_threads=1
C  -0.9803423270  -0.0000003740  0.0000000000
H  0.0914507540  -0.0000002990  0.0000000000
C  -2.1778332730  0.0000002160  0.0000000000
H  -3.2388449620  0.0000009100  0.0000000000
N  2.3473059470  0.0000001880  0.0000000000
H  2.7204589630  -0.4705643130  -0.8150403770
H  2.7204589630  -0.4705643130  0.8150403770
H  2.7204608390  0.9411272720  0.0000000000