8
charge=0, multiplicity=1, basis=def2-QZVPPD, AUX_BASIS_CORR=rimp2-def2-QZVPPD, SCF_ALGORITHM=GDM, xc_grid=000099000590, mem_total=3750, num_basis=390, num_pairs=75125, num_threads=1
H  3.8690659350  0.2219173480  -0.9961754870
H  2.4093432510  0.0067804720  2.1475228450
H  0.7601382760  -0.1511766980  1.4789051570
H  1.9078737710  -1.5034900930  1.4072116320
O  1.6093654690  0.4898658880  -0.8764208450
C  2.2942033920  0.0496404150  0.0162836030
O  3.6279871490  -0.0827200430  -0.1099274100
C  1.8026387290  -0.4200182430  1.3518044310