10
charge=0, multiplicity=1, basis=def2-QZVPPD, AUX_BASIS_CORR=rimp2-def2-QZVPPD, SCF_ALGORITHM=GDM, xc_grid=000099000590, mem_total=3750, num_basis=480, num_pairs=113390, num_threads=1
H  -1.0977021120  2.1023328040  0.0000000000
H  -3.7034588470  1.3561074360  0.0000000000
H  -3.7034588470  -1.3561074360  0.0000000000
H  -1.0977021120  -2.1023328040  0.0000000000
N  -0.7398381890  0.0000000000  0.0000000000
C  -1.5291348340  1.1177861240  0.0000000000
C  -2.8429676160  0.7104790240  0.0000000000
C  -2.8429676160  -0.7104790240  0.0000000000
C  -1.5291348340  -1.1177861240  0.0000000000
H  0.2718256280  0.0000000000  0.0000000000