10
charge=0, multiplicity=1, basis=def2-QZVPPD, AUX_BASIS_CORR=rimp2-def2-QZVPPD, SCF_ALGORITHM=GDM, xc_grid=000099000590, mem_total=3750, num_basis=420, num_pairs=87411, num_threads=1
H  3.2937584990  0.7503610270  1.3055270150
H  1.6864154450  0.1623534580  1.7432217130
H  1.9029555350  1.8256131590  1.1684206340
H  1.1259349810  0.6140681020  -0.6667360510
H  2.1771401390  -1.2236079600  -1.6457776610
H  3.4781765790  -1.1292290210  -0.4581382730
H  1.8899468470  -1.6972342910  0.0412770630
C  2.2384492580  0.7994575930  1.0298735130
N  2.0689534610  0.4117839790  -0.3554692900
C  2.4093701370  -0.9691065370  -0.6132030390