11
charge=0, multiplicity=1, basis=def2-QZVPPD, AUX_BASIS_CORR=rimp2-def2-QZVPPD, SCF_ALGORITHM=GDM, xc_grid=000099000590, mem_total=3750, num_basis=483, num_pairs=102684, num_threads=1
C  -1.5979520420  0.1860118940  0.0000000000
H  -0.5715146920  0.5006438640  0.0000000000
C  -2.7408583050  -0.1719695890  0.0000000000
H  -3.7541980530  -0.4866171190  0.0000000000
N  1.6167431360  0.6900936780  0.0000000000
H  1.9977611370  1.1565029170  -0.8124770950
H  1.9977611370  1.1565029170  0.8124770950
C  1.9685258790  -0.7325953620  0.0000000000
H  1.5319249550  -1.2086554250  0.8766892600
H  3.0439413150  -0.9372010510  0.0000000000
H  1.5319249550  -1.2086554250  -0.8766892600