4
charge=0, multiplicity=1, basis=def2-QZVPPD, AUX_BASIS_CORR=rimp2-def2-QZVPPD, SCF_ALGORITHM=GDM, xc_grid=000099000590, mem_total=3750, num_basis=192, num_pairs=18800, num_threads=1
C  3.4972633900  0.0050711020  -0.1646483720
H  2.6468667290  -0.6180058840  -0.0104247450
C  4.4470066830  0.7125269270  -0.3351721220
H  5.2901142190  1.3385971580  -0.4873622990