6
charge=0, multiplicity=1, basis=def2-QZVPPD, AUX_BASIS_CORR=rimp2-def2-QZVPPD, SCF_ALGORITHM=GDM, xc_grid=000099000590, mem_total=3750, num_basis=261, num_pairs=34660, num_threads=1
O  0.7490946270  -0.6541736460  0.0000000000
H  -0.1818616190  -0.3696155680  0.0000000000
C  1.5705775650  0.4933642320  0.0000000000
H  2.6074843610  0.1606095490  0.0000000000
H  1.4159533850  1.1172449400  0.8880088310
H  1.4159533850  1.1172449400  -0.8880088310