14
charge=0, multiplicity=1, basis=def2-QZVPPD, AUX_BASIS_CORR=rimp2-def2-QZVPPD, SCF_ALGORITHM=GDM, xc_grid=000099000590, mem_total=3750, num_basis=651, num_pairs=176765, num_threads=1
O  -2.0807224110  0.3747434580  -0.2770172550
H  -1.3180262110  -0.2208474170  -0.2584042670
C  -3.2083083120  -0.2969348560  0.2534068000
H  -4.0425547770  0.4019476250  0.2396736180
H  -3.4841703410  -1.1713664920  -0.3439503040
H  -3.0476915520  -0.6191567810  1.2871205470
H  2.6816655110  -1.3547047800  0.0235797490
H  0.0206672060  1.6219429350  0.0898774200
H  1.5751491790  1.8169002570  0.9510625790
H  1.5399109180  1.8809607530  -0.8016674040
O  0.4572710970  -0.9154589510  -0.1259675700
C  1.3112485870  -0.0688644890  -0.0003679790
O  2.6165312910  -0.3914694730  0.0864942260
C  1.0840015500  1.4098700460  0.0689191540