17
charge=0, multiplicity=1, basis=def2-QZVPPD, AUX_BASIS_CORR=rimp2-def2-QZVPPD, SCF_ALGORITHM=GDM, xc_grid=000099000590, mem_total=7500, num_basis=804, num_pairs=268361, num_threads=2
N  -3.7127083030  0.6841109040  0.0000000000
H  -3.1494250680  -0.1583908790  0.0000000000
H  -4.3120437630  0.6523082400  -0.8146850730
H  -4.3120437630  0.6523082400  0.8146850730
H  -1.1687333140  1.2126780530  0.0000000000
H  3.1169237940  1.5464006750  0.0000000000
H  0.8800528410  2.6096056460  0.0000000000
H  1.2538589430  -2.3129826600  0.0000000000
H  -1.0260822980  -2.2940173220  0.0000000000
H  3.2926983450  -0.9244880190  0.0000000000
C  2.2249269820  0.9374105470  0.0000000000
C  0.9672400130  1.5322157220  0.0000000000
C  -0.1865441190  0.7617995510  0.0000000000
C  -0.0739194530  -0.6245205910  0.0000000000
C  1.1764029340  -1.2326745420  0.0000000000
C  2.3228668050  -0.4474380460  0.0000000000
O  -1.2356514810  -1.3566022650  0.0000000000