20
charge=0, multiplicity=1, basis=def2-QZVPPD, AUX_BASIS_CORR=rimp2-def2-QZVPPD, SCF_ALGORITHM=GDM, xc_grid=000099000590, mem_total=15000, num_basis=840, num_pairs=300244, num_threads=4
N  -2.0632497970  -0.7049440790  -0.1549662340
H  -1.1065672020  -0.4834288160  -0.4174445010
H  -2.4255269640  -1.3581019990  -0.8362775690
C  -2.8773481180  0.5071523040  -0.1181944580
H  -3.8955508070  0.2597715890  0.1824460180
H  -2.9323163870  1.0589192900  -1.0653464590
H  -2.4760958660  1.1855050600  0.6348135430
H  1.6657979140  0.9702215310  1.7075743650
H  0.0050795700  0.3375757180  1.7331337320
H  0.3747353010  1.8042575210  0.8212519620
H  1.5164232190  1.6499556710  -1.2788932000
H  2.9096897740  0.8236287250  -0.5553942530
H  2.0223040090  0.0751711210  -1.8968364680
H  2.3977584850  -1.3113676890  0.8131112960
H  1.5666362860  -1.9110609070  -0.6350990520
C  0.7525416310  0.8239169090  1.1086852210
N  0.9908974280  0.0209175100  -0.0797442470
C  1.9096644250  0.6748329240  -0.9945724830
C  1.4393972170  -1.3172933000  0.2692497140
H  0.6911428360  -1.8010605560  0.8948272310