11
charge=0, multiplicity=1, basis=def2-QZVPPD, AUX_BASIS_CORR=rimp2-def2-QZVPPD, SCF_ALGORITHM=GDM, xc_grid=000099000590, mem_total=3750, num_basis=543, num_pairs=142270, num_threads=1
H  -3.1874080080  1.4738788390  -0.4176628380
H  -0.9425154380  2.3968354900  0.0969067310
C  -2.5177325560  -0.5688274320  -0.2467525130
C  -2.3588339650  0.8096482600  -0.2200287510
C  -1.1020682490  1.3259359800  0.0680994030
N  -0.0383882200  0.5638992580  0.3209825890
C  -0.1993449900  -0.7605264410  0.2934252430
C  -1.4161277910  -1.3706321510  0.0151029400
H  0.6873202070  -1.3459657100  0.5031648220
H  -1.4923950920  -2.4480558260  0.0054018100
H  -3.4803565220  -1.0083592290  -0.4671855130