24
charge=0, multiplicity=1, basis=def2-QZVPPD, AUX_BASIS_CORR=rimp2-def2-QZVPPD, SCF_ALGORITHM=GDM, xc_grid=000099000590, mem_total=30000, num_basis=1098, num_pairs=455921, num_threads=8
C  1.8501598620  -1.6297021190  0.7885426470
H  1.8979450690  -2.4103595200  0.0302102770
H  0.8209008290  -1.5004945040  1.1160084910
H  2.4574178620  -1.9580921470  1.6298652380
C  2.4570019880  -0.3608163410  0.2203153750
O  3.6236121570  -0.3131540930  -0.1432844130
N  1.6227156060  0.6996296880  0.1433134260
H  0.6549458090  0.6002216510  0.4252396550
C  2.0771432150  1.9711247730  -0.3787534130
H  2.8947416950  2.3723797230  0.2200387460
H  2.4401112190  1.8712328280  -1.4022101090
H  1.2457557180  2.6711717140  -0.3595355070
C  -1.2052009960  -0.8710421680  -1.4497378190
H  -0.4323034240  -0.2198651210  -1.8508091470
H  -1.8929418630  -1.1506272320  -2.2448876340
H  -0.7111973630  -1.7682508820  -1.0795979160
C  -1.8831244780  -0.1770055250  -0.2915593680
O  -1.2485343360  0.3497520730  0.6167620650
N  -3.2332833190  -0.1759055600  -0.2952643080
H  -3.7184134330  -0.6206050460  -1.0519318800
C  -3.9993437460  0.4358726160  0.7764416610
H  -3.7500263210  1.4911361330  0.8721691090
H  -5.0571652580  0.3365493260  0.5511961850
H  -3.7878035790  -0.0473834460  1.7290520980