28
charge=0, multiplicity=1, basis=def2-QZVPPD, mem_total=30000, AUX_BASIS_CORR=rimp2-def2-QZVPPD, SCF_ALGORITHM=GDM, xc_grid=000099000590, num_basis=1344, num_pairs=682855, num_threads=8
H  0.1284772380  -0.3027800000  0.7708521350
H  3.7158000680  -2.4682484890  -0.1148388310
H  1.3293954410  -2.4263547970  0.5710137510
H  3.6631220950  1.8058836690  -0.4123329300
H  0.1324184270  2.1047587120  0.2384828950
H  4.8674710230  -0.3261157640  -0.6030532920
H  1.5583738070  2.9012926980  -0.1315078900
C  3.1863495270  -1.5306801860  -0.0295101860
C  1.8501397550  -1.5034542480  0.3554951450
C  1.1645106780  -0.3045835990  0.4679523970
C  1.8052671670  0.9079108040  0.1878447520
C  3.1507281840  0.8767517930  -0.1971758460
C  3.8286423160  -0.3284912960  -0.3024465900
N  1.1373618060  2.1178395400  0.3377798850
H  -2.7739310070  0.7754357540  1.9257182140
H  -2.3866471450  -3.0279744190  -0.0069181710
H  -2.8786083670  -1.6797992670  2.0134971860
H  -1.6974411020  0.5773129020  -2.2129034740
H  -2.6035455490  2.7326802810  0.5293277990
H  -1.8030010410  -1.8758370820  -2.1215547790
H  -2.2279885340  2.6571122860  -1.0880946030
C  -2.3515301870  -1.9495781560  -0.0488181560
C  -2.6263426640  -1.1915976830  1.0827982240
C  -2.5738051030  0.1940554400  1.0354075440
C  -2.2431900740  0.8453241380  -0.1539157550
C  -1.9731935590  0.0827296410  -1.2910975900
C  -2.0271488600  -1.3010815720  -1.2343522560
N  -2.0879048180  2.2392877670  -0.1819549450