10
charge=0, multiplicity=1, basis=def2-QZVPPD, AUX_BASIS_CORR=rimp2-def2-QZVPPD, SCF_ALGORITHM=GDM, xc_grid=000099000590, mem_total=3750, num_basis=480, num_pairs=113390, num_threads=1
H  -2.0464659370  -2.1180415880  0.1271419540
H  -3.4326923670  -0.1529957470  1.3773816110
H  -2.4174660270  2.1846659650  0.4505954290
H  -0.4706511760  1.5052547510  -1.3137186470
N  -1.0444854740  -0.4855306560  -0.8110816270
C  -1.9567866960  -1.0509740460  0.0370222990
C  -2.6379232150  -0.0330454670  0.6626541020
C  -2.1033626920  1.1922802080  0.1791892490
C  -1.1146033800  0.8788401980  -0.7241126210
H  -0.3138652610  -0.9813495780  -1.2930439310