14
charge=0, multiplicity=1, basis=def2-QZVPPD, AUX_BASIS_CORR=rimp2-def2-QZVPPD, SCF_ALGORITHM=GDM, xc_grid=000099000590, mem_total=7500, num_basis=672, num_pairs=208044, num_threads=2
H  -0.2160662700  -0.1516660170  1.7455288310
H  -3.6191868120  -2.0752227200  -0.0220837920
H  -1.7801635000  -2.0510691110  1.6425726070
H  -2.2844606030  1.7184647690  -1.5033143070
H  0.6857852110  1.7470248280  0.5189136060
H  -3.8566795990  -0.1646494490  -1.5856821320
H  -0.2447081130  2.5973456880  -0.5962945510
C  -2.9267333770  -1.2475339840  0.0169802840
C  -1.8935239040  -1.2312046470  0.9463816210
C  -1.0027996230  -0.1679621240  1.0040445720
C  -1.1240383170  0.9143242800  0.1177762450
C  -2.1716528650  0.8917871860  -0.8139403890
C  -3.0573461710  -0.1728070860  -0.8573653800
N  -0.2473529440  1.9798703380  0.1976257980