9
charge=0, multiplicity=1, basis=def2-QZVPPD, AUX_BASIS_CORR=rimp2-def2-QZVPPD, SCF_ALGORITHM=GDM, xc_grid=000099000590, mem_total=3750, num_basis=390, num_pairs=75391, num_threads=1
H  -2.1775330180  1.4429317170  1.2447669080
H  -3.3014941690  0.7047118370  0.0808287610
H  -1.8358172110  1.5306199710  -0.4983308160
H  -0.9321461390  -1.9672331260  -0.5336362970
H  -2.5424695750  -1.3758362580  -1.0025288400
H  -1.0819896950  -0.5345498700  -1.5742939520
C  -2.2480555320  0.9066036620  0.3021111630
O  -1.5168020750  -0.2935977680  0.4431351340
C  -1.5240979880  -1.0775376510  -0.7321916640