13
charge=0, multiplicity=1, basis=def2-QZVPPD, AUX_BASIS_CORR=rimp2-def2-QZVPPD, SCF_ALGORITHM=GDM, xc_grid=000099000590, mem_total=7500, num_basis=642, num_pairs=191867, num_threads=2
H  -1.8319550750  -2.1943133240  0.7168803080
H  -3.5974786410  1.7027144590  0.3433992670
H  -3.7275993320  -0.6489171680  1.1125182320
H  0.3077414030  0.9387825170  -1.2491859170
H  1.1565136520  -1.1592360870  -0.7836983500
H  -1.5658102720  2.4859090830  -0.8371844840
C  -2.7729791380  1.0268610420  0.1708449830
C  -2.8436136090  -0.2942969590  0.6012419690
C  -1.7884740580  -1.1674447570  0.3844229310
C  -0.6453262970  -0.7215800040  -0.2751401560
C  -0.5697862350  0.5984525100  -0.7169754890
C  -1.6321581420  1.4646774800  -0.4887759960
O  0.3658622540  -1.6144362160  -0.4604937690