4
charge=0, multiplicity=1, basis=def2-QZVPPD, AUX_BASIS_CORR=rimp2-def2-QZVPPD, SCF_ALGORITHM=GDM, xc_grid=000099000590, mem_total=3750, num_basis=162, num_pairs=13492, num_threads=1
N  -3.1194508360  -0.0760042910  0.0000000000
H  -2.1674624810  0.2882131540  0.0000000000
H  -3.5928299580  0.2957716490  0.8136351130
H  -3.5928299580  0.2957716490  -0.8136351130