6
charge=0, multiplicity=1, basis=def2-QZVPPD, AUX_BASIS_CORR=rimp2-def2-QZVPPD, SCF_ALGORITHM=GDM, xc_grid=000099000590, mem_total=3750, num_basis=288, num_pairs=41591, num_threads=1
H  -5.0858730390  0.5138480610  -0.8856763020
H  -5.0886242540  -1.0199665730  0.0000000000
H  -5.0858730390  0.5138480610  0.8856763020
C  -4.7141548700  0.0019842060  0.0000000000
C  -3.2616966560  -0.0007323980  0.0000000000
N  -2.1148651260  -0.0028218140  0.0000000000