7
charge=0, multiplicity=1, basis=def2-QZVPPD, AUX_BASIS_CORR=rimp2-def2-QZVPPD, SCF_ALGORITHM=GDM, xc_grid=000099000590, mem_total=3750, num_basis=357, num_pairs=63718, num_threads=1
H  -0.0243459080  -1.4238692780  -0.3054907400
H  1.0211457250  -1.6366639720  1.1117399060
H  1.7104037300  -1.9068889520  -0.5166942240
C  0.9923253070  -1.3445941740  0.0652635850
N  1.3914578350  0.0965894890  0.0180833820
O  0.5561360410  0.9214408100  0.3684067950
O  2.5189581720  0.3649317210  -0.3405753740