9
charge=0, multiplicity=1, basis=def2-QZVPPD, AUX_BASIS_CORR=rimp2-def2-QZVPPD, SCF_ALGORITHM=GDM, xc_grid=000099000590, mem_total=3750, num_basis=390, num_pairs=75391, num_threads=1
H  2.2648962080  0.0000000000  -2.0227788450
H  3.5877407220  0.8901362790  -1.2347000780
H  3.5877407220  -0.8901362790  -1.2347000780
H  2.2648962080  0.0000000000  2.0227788450
H  3.5877407220  0.8901362790  1.2347000780
H  3.5877407220  -0.8901362790  1.2347000780
C  2.9533510950  0.0000000000  -1.1819429850
O  2.1761457830  0.0000000000  0.0000000000
C  2.9533510950  0.0000000000  1.1819429850