18
charge=0, multiplicity=1, basis=def2-QZVPPD, AUX_BASIS_CORR=rimp2-def2-QZVPPD, SCF_ALGORITHM=GDM, xc_grid=000099000590, mem_total=15000, num_basis=834, num_pairs=281108, num_threads=4
N  3.0109092740  -0.0586610920  0.5873944450
H  2.1762671970  0.5044218800  0.7123892910
H  3.7266687820  0.3072009000  1.2000946750
C  3.4437628370  -0.0096567650  -0.8070538810
H  4.3110943680  -0.6550599080  -0.9473359720
H  3.7041646850  0.9899570810  -1.1765914310
H  2.6456763230  -0.3953152690  -1.4411518360
H  -3.1874080080  1.4738788390  -0.4176628380
H  -0.9425154380  2.3968354900  0.0969067310
C  -2.5177325560  -0.5688274320  -0.2467525130
C  -2.3588339650  0.8096482600  -0.2200287510
C  -1.1020682490  1.3259359800  0.0680994030
N  -0.0383882200  0.5638992580  0.3209825890
C  -0.1993449900  -0.7605264410  0.2934252430
C  -1.4161277910  -1.3706321510  0.0151029400
H  0.6873202070  -1.3459657100  0.5031648220
H  -1.4923950920  -2.4480558260  0.0054018100
H  -3.4803565220  -1.0083592290  -0.4671855130