8
charge=0, multiplicity=1, basis=def2-QZVPPD, AUX_BASIS_CORR=rimp2-def2-QZVPPD, SCF_ALGORITHM=GDM, xc_grid=000099000590, mem_total=3750, num_basis=390, num_pairs=75100, num_threads=1
C  -1.7676779140  -0.1395275950  -0.0247946040
O  -0.9585032350  -1.0370229110  -0.0695462830
O  -1.4497707610  1.1491383680  -0.2053871670
H  -0.4896697970  1.2233281440  -0.3694856600
C  -3.2351494380  -0.3220465240  0.2400873640
H  -3.4599697750  -1.3763267730  0.3555855080
H  -3.5130207270  0.2197018610  1.1433127980
H  -3.8143695550  0.0988425680  -0.5804164870