9
charge=0, multiplicity=1, basis=def2-QZVPPD, AUX_BASIS_CORR=rimp2-def2-QZVPPD, SCF_ALGORITHM=GDM, xc_grid=000099000590, mem_total=3750, num_basis=450, num_pairs=99885, num_threads=1
H  3.5528215850  1.7384738300  -1.3677216750
H  3.5528230650  1.7384718140  1.3677229850
H  2.3728054690  -0.6334225170  -2.0511855700
H  2.3728070140  -0.6334251290  2.0511846570
C  3.1729910380  0.9717988160  0.7169707030
C  3.1729903580  0.9717998090  -0.7169701590
C  2.5980176250  -0.1902713370  -1.0998354210
O  2.2388319250  -0.9196335720  -0.0000005890
C  2.5980186110  -0.1902728390  1.0998349080