13
charge=0, multiplicity=1, basis=def2-QZVPPD, AUX_BASIS_CORR=rimp2-def2-QZVPPD, SCF_ALGORITHM=GDM, xc_grid=000099000590, mem_total=7500, num_basis=642, num_pairs=191819, num_threads=2
H  -2.7835827570  -1.7978261220  -1.3026809770
H  -4.3638138420  1.6286191830  0.7488169890
H  -4.7028148460  -0.3561318960  -0.6976057920
H  -0.1838341680  0.7015831630  0.9852876880
H  0.5196987180  -1.1302774030  -0.2390250330
H  -2.0898475050  2.1455870690  1.5843952900
C  -3.5283202330  0.9974374010  0.4836920640
C  -3.7149722200  -0.1176366280  -0.3278260180
C  -2.6469340980  -0.9311909270  -0.6720413340
C  -1.3633325600  -0.6409564710  -0.2041909460
C  -1.1729466520  0.4768012760  0.6139267820
C  -2.2518438370  1.2849045440  0.9496474280
O  -0.3547953440  -1.4611857550  -0.5687659000