3
charge=0, multiplicity=1, basis=def2-QZVPPD, AUX_BASIS_CORR=rimp2-def2-QZVPPD, SCF_ALGORITHM=GDM, xc_grid=000099000590, mem_total=3750, num_basis=132, num_pairs=9017, num_threads=1
O  -2.1539160540  0.2605440380  0.0000000000
H  -1.4236492910  -0.3775048590  0.0000000000
H  -2.9588777180  -0.2604844190  0.0000000000