10
charge=0, multiplicity=1, basis=def2-QZVPPD, AUX_BASIS_CORR=rimp2-def2-QZVPPD, SCF_ALGORITHM=GDM, xc_grid=000099000590, mem_total=3750, num_basis=480, num_pairs=113330, num_threads=1
H  0.0969266400  -2.1021425380  0.0003699670
H  2.7016047020  -1.3562712120  -0.0010190590
H  2.7016046930  1.3562712280  -0.0010190590
H  0.0969266360  2.1021425410  0.0003699620
N  -0.2632645010  -0.0000000030  0.0008898720
C  0.5266751660  -1.1166771660  0.0003463460
C  1.8413325800  -0.7102699410  -0.0004926440
C  1.8413325830  0.7102699440  -0.0004926440
C  0.5266751620  1.1166771640  0.0003463470
H  -1.2797302880  -0.0000000040  0.0012892800