6
charge=0, multiplicity=1, basis=def2-QZVPPD, AUX_BASIS_CORR=rimp2-def2-QZVPPD, SCF_ALGORITHM=GDM, xc_grid=000099000590, mem_total=3750, num_basis=261, num_pairs=34660, num_threads=1
O  2.5590432250  0.2539188370  0.3537496210
H  1.7182370810  0.3110849530  0.8165336980
C  2.3442808480  -0.4565084670  -0.8553819130
H  3.2800372310  -0.4388876150  -1.4097869990
H  1.5673675740  0.0060878840  -1.4707205330
H  2.0691693540  -1.5000672740  -0.6753461220