23
charge=0, multiplicity=1, basis=def2-QZVPPD, AUX_BASIS_CORR=rimp2-def2-QZVPPD, SCF_ALGORITHM=GDM, xc_grid=000099000590, mem_total=15000, num_basis=1062, num_pairs=434147, num_threads=4
H  -1.7491378530  -2.3213783720  -0.5079039900
H  -4.1561285570  1.1958388640  0.0225472960
H  -3.9631296350  -1.2144844740  -0.5232740270
H  0.0847389820  1.3705903250  0.6135662850
H  1.2459082100  -0.5879603120  0.2112259260
H  -2.1138209170  2.4782063750  0.5895002890
C  -3.1913505830  0.7103387540  0.0294405340
C  -3.0792312380  -0.6426427740  -0.2762595190
C  -1.8441787130  -1.2717421200  -0.2701600330
C  -0.6910654780  -0.5506784040  0.0458257810
C  -0.8013518470  0.8071869500  0.3573044490
C  -2.0444887580  1.4268313940  0.3458261060
O  0.4902037870  -1.2052369050  0.0390728740
H  2.6856007940  0.4711607730  -1.7897194200
H  3.8133420140  1.6287630390  -1.0665036960
H  2.0591039550  1.8802252030  -0.9419386980
H  2.8043882380  0.9575342750  1.0948658870
H  3.7522546010  -1.1755096590  1.3518832870
H  3.7045061210  -1.3951742180  -0.3948008310
H  4.8352780960  -0.2288133080  0.3087676460
C  2.8464196000  1.1292294130  -0.9366534750
N  2.7699085470  0.3420496300  0.2927486530
C  3.8308073570  -0.6586385150  0.3978147440