7
charge=0, multiplicity=1, basis=def2-QZVPPD, AUX_BASIS_CORR=rimp2-def2-QZVPPD, SCF_ALGORITHM=GDM, xc_grid=000099000590, mem_total=3750, num_basis=351, num_pairs=60370, num_threads=1
H  -0.9092780930  1.9911720620  -0.8905046400
H  -0.9092780930  1.9911720620  0.8905046400
H  0.5968088950  1.7106650810  0.0000000000
C  -0.4735056470  1.5362866070  0.0000000000
N  -0.6616753050  0.0756772770  0.0000000000
N  -1.8223438250  -0.3175241800  0.0000000000
N  -2.8478012970  -0.7885851980  0.0000000000