9
charge=0, multiplicity=1, basis=def2-QZVPPD, AUX_BASIS_CORR=rimp2-def2-QZVPPD, SCF_ALGORITHM=GDM, xc_grid=000099000590, mem_total=3750, num_basis=420, num_pairs=82392, num_threads=1
O  2.0798757560  -0.2089192750  0.0000000000
H  2.9996138910  0.0638438420  0.0000000000
H  1.5664213420  0.6062570850  0.0000000000
H  -1.6859542040  -1.5010064330  0.8860427190
H  -1.6859542040  -1.5010064330  -0.8860427190
H  -0.1598103740  -1.7006557010  0.0000000000
C  -1.1283955070  -1.2035808780  0.0000000000
C  -0.9136227300  0.2326394080  0.0000000000
N  -0.6991794420  1.3614057230  0.0000000000