13
charge=0, multiplicity=1, basis=def2-QZVPPD, AUX_BASIS_CORR=rimp2-def2-QZVPPD, SCF_ALGORITHM=GDM, xc_grid=000099000590, mem_total=3750, num_basis=579, num_pairs=147851, num_threads=1
N  2.2641480550  -0.4282374590  -0.1241516490
H  1.4815862180  -1.0699317400  -0.1498330100
H  2.8529205500  -0.7110891180  0.6474978660
C  1.7899244040  0.9380566080  0.0636373840
H  2.6408294020  1.6163401360  0.1235822570
H  1.1715695770  1.0964550080  0.9577973700
H  1.2037280080  1.2366972340  -0.8061486430
H  -2.7798773960  1.0597890220  0.8362918590
H  -1.4095485850  1.7577926310  -0.0419950290
H  -2.7473943470  1.0143106500  -0.9335117150
C  -2.1369516980  0.9481838700  -0.0348261490
C  -1.4492725670  -0.3309186560  0.0104639610
N  -0.8975317230  -1.3372347720  0.0448730320