16
charge=0, multiplicity=1, basis=def2-QZVPPD, AUX_BASIS_CORR=rimp2-def2-QZVPPD, SCF_ALGORITHM=GDM, xc_grid=000099000590, mem_total=7500, num_basis=681, num_pairs=202923, num_threads=2
O  -1.5953398180  0.6880932120  -0.2174494740
H  -0.7014704300  0.4416080710  0.0948046630
C  -2.4876905140  -0.3525666120  0.1158950920
H  -3.4790999000  -0.0700730650  -0.2353716390
H  -2.2184188400  -1.3018917890  -0.3624270560
H  -2.5479330560  -0.5201314120  1.1975480450
H  1.5286650630  1.2423646950  -1.1221940220
H  2.9374466170  0.8271289540  -0.1330907190
H  1.6979009170  1.9407394250  0.4846606670
H  1.2772577450  -0.1652219360  1.4313226690
H  0.7258509010  -2.1126034500  0.2436053880
H  0.9270920100  -1.2347038080  -1.2702927590
H  2.3471217460  -1.6180796860  -0.2860592250
C  1.8614999550  1.0407137230  -0.1044325230
N  1.0726555280  -0.0572051080  0.4471229900
C  1.2910855600  -1.3222937300  -0.2467958850