13
charge=0, multiplicity=1, basis=def2-QZVPPD, AUX_BASIS_CORR=rimp2-def2-QZVPPD, SCF_ALGORITHM=GDM, xc_grid=000099000590, mem_total=7500, num_basis=642, num_pairs=191934, num_threads=2
H  -2.1069687120  -2.2931721320  0.0557027620
H  -4.2513589820  1.3456674240  0.8297719430
H  -4.1473897000  -1.1298111790  0.8438427620
H  -0.2691054980  1.4745702770  -0.7629567900
H  0.7520356100  -0.5457345530  -1.0592397240
H  -2.3013756210  2.6406500140  0.0204318580
C  -3.3621539360  0.8358593150  0.4890481970
C  -3.3010835050  -0.5536628030  0.4963120220
C  -2.1624347560  -1.2140505210  0.0587690530
C  -1.0670368570  -0.4818305360  -0.3947228310
C  -1.1207169390  0.9118400550  -0.4070728500
C  -2.2668408030  1.5600724660  0.0348234090
O  0.0323072830  -1.1675701630  -0.8090996940