7
charge=0, multiplicity=1, basis=def2-QZVPPD, AUX_BASIS_CORR=rimp2-def2-QZVPPD, SCF_ALGORITHM=GDM, xc_grid=000099000590, mem_total=3750, num_basis=324, num_pairs=52717, num_threads=1
H  1.5708135740  1.5920872570  0.8745233710
H  1.5708135740  1.5920872570  -0.8745233710
H  0.0169667630  1.4537677970  0.0000000000
H  2.2949301890  -0.6636263720  0.0000000000
C  1.0664032090  1.1742667100  0.0000000000
C  1.2463316680  -0.3096971990  0.0000000000
O  0.3502818190  -1.1197576410  0.0000000000