7
charge=0, multiplicity=1, basis=def2-QZVPPD, AUX_BASIS_CORR=rimp2-def2-QZVPPD, SCF_ALGORITHM=GDM, xc_grid=000099000590, mem_total=3750, num_basis=324, num_pairs=52717, num_threads=1
H  -2.7542757240  2.1501096660  -1.3855905430
H  -1.2841777420  2.1339794670  -0.4270418090
H  -2.8701895590  2.0665358760  0.3957916550
H  -1.6718815880  -0.1379672950  -1.4254615250
C  -2.3042210960  1.7479320220  -0.4751929140
C  -2.2461316270  0.2562393810  -0.5656445030
O  -2.7636587820  -0.5036114120  0.2156379550