20
charge=0, multiplicity=1, basis=def2-QZVPPD, AUX_BASIS_CORR=rimp2-def2-QZVPPD, SCF_ALGORITHM=GDM, xc_grid=000099000590, mem_total=15000, num_basis=966, num_pairs=377631, num_threads=4
H  1.7503772340  -2.2267350610  -0.6626552510
H  3.6733640290  1.5997951100  -0.3400026030
H  3.7193487190  -0.7743883930  -1.0488716710
H  -0.3020967090  1.0423772870  1.1669568050
H  -1.2273157050  -1.0316848140  0.7573432150
H  1.6487632200  2.4978143240  0.7689146770
C  2.8162934400  0.9642793000  -0.1724220810
C  2.8393622520  -0.3692032070  -0.5689149370
C  1.7425311870  -1.1904888460  -0.3572783880
C  0.6017623290  -0.6818060200  0.2623610780
C  0.5743354310  0.6528996370  0.6686022700
C  1.6790161560  1.4659671750  0.4470947120
O  -0.4480466360  -1.5229752600  0.4439244040
H  -3.3474020110  0.0695623100  -2.1995647130
H  -2.2288961950  1.3612895860  -1.8192560540
H  -1.7541310900  -0.3244473830  -1.4866184890
H  -4.0844090470  1.1732219670  -0.0773145190
C  -2.5794886030  0.3804949820  -1.4884179700
C  -3.1913656330  0.5239595250  -0.1337825430
O  -2.7813140470  -0.0011825210  0.8753602260