19
charge=0, multiplicity=1, basis=def2-QZVPPD, AUX_BASIS_CORR=rimp2-def2-QZVPPD, SCF_ALGORITHM=GDM, xc_grid=000099000590, mem_total=15000, num_basis=876, num_pairs=316786, num_threads=4
N  2.7845415080  0.1033143610  -0.0946985010
H  2.1728578090  -0.0191242130  -0.8927164470
H  3.7295561780  0.1827884720  -0.4448556780
C  2.4076371040  1.3038763140  0.6502041160
H  3.0775119320  1.4311600730  1.5001907340
H  2.4182776510  2.2312425990  0.0666741360
H  1.4017049870  1.1786502960  1.0513071450
H  -1.8616280410  1.1347119820  1.6151241970
H  -3.0891821310  0.1315158680  0.8129034980
H  -3.0514419580  1.8889977290  0.5249886450
H  0.0084645750  -2.6379800140  -0.3286193800
H  1.1825573060  -1.6501457560  0.5753607880
H  -0.0659708770  -2.5866483380  1.4545061590
O  -1.5988981520  0.8832930490  -0.4394589320
C  -0.7224522390  -0.1213970490  -0.5155294940
O  0.0105619920  -0.2555489430  -1.4583611340
O  -0.7696941310  -0.9216744120  0.5556939070
C  0.1618846680  -2.0245407820  0.5554411680
C  -2.4502827360  1.0052691740  0.7101060070