3
charge=0, multiplicity=1, basis=def2-QZVPPD, AUX_BASIS_CORR=rimp2-def2-QZVPPD, SCF_ALGORITHM=GDM, xc_grid=000099000590, mem_total=3750, num_basis=132, num_pairs=9017, num_threads=1
O  -2.6995245770  0.0126053440  0.0251417400
H  -1.8866691660  -0.5158679390  0.0098311510
H  -3.3987450370  -0.5735851610  -0.2694514030