3
charge=0, multiplicity=1, basis=def2-QZVPPD, AUX_BASIS_CORR=rimp2-def2-QZVPPD, SCF_ALGORITHM=GDM, xc_grid=000099000590, mem_total=3750, num_basis=132, num_pairs=9017, num_threads=1
O  -3.4759318690  -0.0000000630  -0.0878553490
H  -2.5019300680  -0.0000000500  -0.0215877740
H  -3.7899101790  0.0000011470  0.8182908050