7
charge=0, multiplicity=1, basis=def2-QZVPPD, AUX_BASIS_CORR=rimp2-def2-QZVPPD, SCF_ALGORITHM=GDM, xc_grid=000099000590, mem_total=3750, num_basis=291, num_pairs=42988, num_threads=1
N  -1.8757491010  -0.5275933360  -0.5071107520
H  -0.8992091590  -0.3928157870  -0.7549777080
H  -2.4240554530  -0.4150620060  -1.3489858840
C  -2.2800437390  0.4443474520  0.5044450770
H  -3.3281047030  0.2947545100  0.7645682260
H  -2.1537503400  1.4965941900  0.2170662590
H  -1.6997137160  0.2800905180  1.4129862560