18
charge=0, multiplicity=1, basis=def2-QZVPPD, AUX_BASIS_CORR=rimp2-def2-QZVPPD, SCF_ALGORITHM=GDM, xc_grid=000099000590, mem_total=7500, num_basis=810, num_pairs=266363, num_threads=2
H  -3.7011513820  0.0030705690  1.1938763270
H  -3.4419873450  1.4246144770  0.1758453720
H  -2.5105045740  1.2113562710  1.6705369810
H  -1.1178248960  0.5350569910  -0.0928116220
H  -1.5395059480  -1.2102362430  -1.5761416560
H  -3.1007875550  -1.4962985090  -0.8082369090
H  -2.8571093010  -0.0433415890  -1.7859379720
C  -2.9373410550  0.6859478900  0.8173473170
N  -1.8997894520  -0.0664784240  0.1343649210
C  -2.3735738450  -0.7254909080  -1.0701530590
H  3.2793578100  0.9616034620  -0.5973532850
H  0.2172130170  -1.1488835040  0.8565591250
H  1.6290022010  -2.0337501140  0.2120338960
H  1.7776067880  -1.1707973060  1.7304985270
O  1.0104406320  0.9251176300  -0.4543605220
C  1.7340019870  0.0781974960  0.0085849280
O  3.0794179700  0.1523580910  -0.1067257530
C  1.2981538030  -1.1473867560  0.7527996850