10
charge=0, multiplicity=1, basis=def2-QZVPPD, AUX_BASIS_CORR=rimp2-def2-QZVPPD, SCF_ALGORITHM=GDM, xc_grid=000099000590, mem_total=3750, num_basis=480, num_pairs=113340, num_threads=1
H  -1.3702039340  0.1287944050  2.1027835940
H  -3.9574415900  -0.1774394740  1.3558961870
H  -3.9574415900  -0.1774394740  -1.3558961870
H  -1.3702039340  0.1287944050  -2.1027835940
N  -1.0142742110  0.1721216960  0.0000000000
C  -1.7980877440  0.0780441670  1.1178983590
C  -3.1027408970  -0.0767663400  0.7104442930
C  -3.1027408970  -0.0767663400  -0.7104442930
C  -1.7980877440  0.0780441670  -1.1178983590
H  -0.0058662920  0.2793179380  0.0000000000