6
charge=0, multiplicity=1, basis=def2-QZVPPD, AUX_BASIS_CORR=rimp2-def2-QZVPPD, SCF_ALGORITHM=GDM, xc_grid=000099000590, mem_total=3750, num_basis=261, num_pairs=34660, num_threads=1
O  1.9438560030  0.0200424680  0.6957622850
H  1.0141767010  0.2786390790  0.7285596250
C  2.3812830540  0.1103398950  -0.6488681410
H  3.4065763570  -0.2525876870  -0.6836594350
H  2.3717629390  1.1418189290  -1.0164667690
H  1.7721708790  -0.5015346010  -1.3205000620