11
charge=0, multiplicity=1, basis=def2-QZVPPD, AUX_BASIS_CORR=rimp2-def2-QZVPPD, SCF_ALGORITHM=GDM, xc_grid=000099000590, mem_total=3750, num_basis=543, num_pairs=142260, num_threads=1
H  -3.3688011030  -2.3172591660  0.0000186780
H  -0.9272875460  -1.8509041950  0.0000165680
C  -3.8871078890  -0.2243072010  0.0000010340
C  -3.0092587350  -1.2990378230  0.0000104580
C  -1.6454579710  -1.0405499270  0.0000093400
N  -1.1393520000  0.1931663630  -0.0000002400
C  -1.9885701390  1.2209836140  -0.0000094960
C  -3.3675643630  1.0626254190  -0.0000092070
H  -1.5452820280  2.2085745820  -0.0000172740
H  -4.0133153170  1.9281364180  -0.0000166340
H  -4.9556062690  -0.3863677280  0.0000015810