14
charge=0, multiplicity=1, basis=def2-QZVPPD, AUX_BASIS_CORR=rimp2-def2-QZVPPD, SCF_ALGORITHM=GDM, xc_grid=000099000590, mem_total=3750, num_basis=645, num_pairs=174082, num_threads=1
C  -2.5780453140  -0.3153244220  0.0010401010
H  -1.5855784640  -0.7115157370  0.0130101920
C  -3.6810582780  0.1497851460  -0.0127689020
H  -4.6617700990  0.5546375960  -0.0248591070
H  1.2989545320  1.9385397840  -0.8331165360
H  -0.2156055250  1.4494101040  -0.0328277000
H  1.2207438070  1.8934324400  0.9159915090
H  3.0552340490  -1.3201552370  0.0328815420
H  3.2501614440  0.1580872620  -0.9383867890
C  0.8676249420  1.3972752440  0.0101336350
C  1.3373609950  -0.0380834090  0.0036091250
O  0.5612336940  -0.9676418470  0.0180623140
C  2.8308779680  -0.2594288160  -0.0212161710
H  3.3054223600  0.2650057760  0.8094124040