22
charge=0, multiplicity=1, basis=def2-QZVPPD, AUX_BASIS_CORR=rimp2-def2-QZVPPD, SCF_ALGORITHM=GDM, xc_grid=000099000590, mem_total=15000, num_basis=1065, num_pairs=424237, num_threads=4
H  2.1212193970  0.8084701660  -2.0116203350
H  4.5042902580  -0.4074213530  -1.5676151530
H  4.6443845430  -0.8191671950  1.1091772700
H  2.3384607940  0.1693579470  2.1378548660
N  1.9112636210  0.6427492530  0.1035056010
C  2.5582649290  0.4708560760  -1.0893834520
C  3.7606033290  -0.1483482780  -0.8347862910
C  3.8340310610  -0.3639907690  0.5675373010
C  2.6737362930  0.1314337200  1.1172261190
H  0.9672093720  0.9863282110  0.2042902220
H  -4.3833257160  -0.8126669750  0.6288713640
H  -4.2151400320  -0.6218855450  -1.1307813200
H  -5.1829183810  0.5477187820  -0.1982575060
H  0.0132445470  -1.2629622900  -0.8022634630
H  -0.1422815990  -1.4144565110  0.9556587430
H  -0.7902554870  -2.6958828590  -0.1042516940
O  -3.1963959240  0.7913663780  0.0180279820
C  -1.9607488350  0.3035493090  0.0827158500
O  -1.0067467870  1.0192101750  0.2531255770
O  -1.9216241790  -1.0244588950  -0.0585273980
C  -0.6156412300  -1.6315029550  0.0026529440
C  -4.3098650150  -0.0952928910  -0.1845393440