11
charge=0, multiplicity=1, basis=def2-QZVPPD, AUX_BASIS_CORR=rimp2-def2-QZVPPD, SCF_ALGORITHM=GDM, xc_grid=000099000590, mem_total=3750, num_basis=519, num_pairs=126182, num_threads=1
H  3.4124501100  1.6331464620  0.4433540180
H  4.4958582980  0.8014604420  -0.7085302570
H  2.9357961470  1.4778710440  -1.2568019880
H  0.1014881080  -1.7777287580  0.0230979860
C  1.6018714540  -0.3004304710  0.1962672490
O  2.8889684510  -0.2908433500  -0.1589789730
C  3.4648433170  0.9979984760  -0.4373797500
C  1.0832255700  -1.6746562140  0.4810252500
O  0.9499101830  0.7209542870  0.2841708180
H  0.9582537680  -1.7763871080  1.5596940720
H  1.7676857220  -2.4395103270  0.1296176660