27
charge=0, multiplicity=1, basis=def2-QZVPPD, AUX_BASIS_CORR=rimp2-def2-QZVPPD, SCF_ALGORITHM=GDM, xc_grid=000099000590, mem_total=30000, num_basis=1221, num_pairs=565245, num_threads=8
H  -0.1465314280  -1.2073727200  0.7644217110
H  -4.2526891420  -1.4681841520  -0.4360711220
H  -2.1439068460  -2.5568878960  0.2849811380
H  -2.3163227360  2.3485374590  -0.2171783960
H  0.9396435610  0.9490271220  0.4778987210
H  -4.3159261690  0.9995562690  -0.6762945110
H  0.0384935120  2.3628209500  0.2442554150
C  -3.3727606100  -0.8759483170  -0.2330030660
C  -2.1878692260  -1.4823308100  0.1699554960
C  -1.0564563800  -0.7266441290  0.4339578950
C  -1.0788682390  0.6679251810  0.2944138830
C  -2.2766016030  1.2722395200  -0.1084618710
C  -3.4041443580  0.5077304860  -0.3659261490
N  0.0446094370  1.4202597070  0.5945844040
H  3.8684818930  -1.7093464820  0.5293769620
H  3.1504608870  -0.7600425730  1.8464720310
H  2.1437353990  -1.8638808390  0.9065135560
H  1.4589138710  -1.2672507980  -1.3162054360
H  3.1394202100  -1.0910278310  -1.8663521940
H  1.9928809090  0.2549161890  -2.0241316170
H  4.6339566500  0.5099810170  -0.5129442140
H  3.3868215460  1.7453505700  -0.7622278050
C  2.9706591590  -1.1580129470  0.8490318650
N  2.6327713230  -0.0748128420  -0.0606996800
C  2.2948432520  -0.5739821550  -1.3858851810
C  3.6914848870  0.9207042440  -0.1189674190
H  3.8822898600  1.3152257470  0.8780130740