19
charge=0, multiplicity=1, basis=def2-QZVPPD, AUX_BASIS_CORR=rimp2-def2-QZVPPD, SCF_ALGORITHM=GDM, xc_grid=000099000590, mem_total=7500, num_basis=810, num_pairs=286302, num_threads=2
O  -1.8705642930  -0.7569980800  0.0000000000
H  -0.9243807280  -0.5043801890  0.0000000000
C  -2.6425441090  0.4238454110  0.0000000000
H  -3.6936261550  0.1388817400  0.0000000000
H  -2.4606483850  1.0408687450  -0.8879983230
H  -2.4606483850  1.0408687450  0.8879983230
H  2.1773912290  1.0883123420  1.2904371920
H  0.8620449730  0.1967116050  2.0824110010
H  0.5080946400  1.6831191490  1.1986258650
H  0.5080946400  1.6831191490  -1.1986258650
H  2.1773912290  1.0883123420  -1.2904371920
H  0.8620449730  0.1967116050  -2.0824110010
H  2.7093483720  -1.0689110710  0.0000000000
H  1.3651792030  -1.8232999410  -0.8821143290
C  1.1234091770  0.7849372420  1.2046152850
N  0.8690237000  0.0070002390  0.0000000000
C  1.1234091770  0.7849372420  -1.2046152850
C  1.6226707750  -1.2399644620  0.0000000000
H  1.3651792030  -1.8232999410  0.8821143290