17
charge=0, multiplicity=1, basis=def2-QZVPPD, AUX_BASIS_CORR=rimp2-def2-QZVPPD, SCF_ALGORITHM=GDM, xc_grid=000099000590, mem_total=7500, num_basis=741, num_pairs=235166, num_threads=2
N  -2.2152243780  -0.2983604160  -0.5145564610
H  -1.3304154810  -0.2549406790  -1.0058620230
H  -2.9472267560  -0.1160737060  -1.1874609940
C  -2.2439638120  0.6847971550  0.5664058370
H  -3.1891497470  0.6095598020  1.1031689980
H  -2.1196275170  1.7272135810  0.2477107000
H  -1.4498346760  0.4593523660  1.2773815270
H  1.2645975130  -2.5550536420  -0.4967128760
H  1.3701162320  -1.9201197490  1.1780146140
H  -0.2131256660  -2.1201673950  0.3509580670
H  1.0675660710  2.3170919620  0.4893610800
H  1.0165476100  1.6887199930  -1.1888702340
H  2.5724284510  1.9372185200  -0.3325739810
C  0.8387760700  -1.8612455050  0.2282250260
N  0.8935726520  -0.5211424790  -0.3468708300
N  1.4998693440  0.2958977020  0.3440436230
C  1.5295188490  1.6382969280  -0.2277789050