12
charge=0, multiplicity=1, basis=def2-QZVPPD, AUX_BASIS_CORR=rimp2-def2-QZVPPD, SCF_ALGORITHM=GDM, xc_grid=000099000590, mem_total=3750, num_basis=549, num_pairs=141176, num_threads=1
C  0.9361489940  1.8035241510  0.0000000000
H  1.2475868940  2.3669741880  0.8777901100
H  1.2475868940  2.3669741880  -0.8777901100
H  -0.1473172990  1.7088834300  0.0000000000
C  1.6522231000  0.4665040760  0.0000000000
O  2.8726486990  0.3955519970  0.0000000000
N  0.8553291600  -0.6250805970  0.0000000000
H  -0.1569920930  -0.5233664000  0.0000000000
C  1.4231706450  -1.9566833860  0.0000000000
H  2.0466761810  -2.1201126830  0.8791359350
H  2.0466761810  -2.1201126830  -0.8791359350
H  0.6119978060  -2.6812514980  0.0000000000