7
charge=0, multiplicity=1, basis=def2-QZVPPD, AUX_BASIS_CORR=rimp2-def2-QZVPPD, SCF_ALGORITHM=GDM, xc_grid=000099000590, mem_total=3750, num_basis=351, num_pairs=60369, num_threads=1
H  2.5522728370  1.7131905230  -1.5333173670
H  2.7402114500  0.0986737550  -2.2646771650
H  1.1391772620  0.6680367340  -1.7605349510
C  2.1966976210  0.6827954150  -1.5219383420
N  2.3299891020  0.0884567730  -0.1786477420
N  3.4644076940  0.0592482700  0.2913750120
N  4.4598226070  -0.0124658080  0.8139102290