7
charge=0, multiplicity=1, basis=def2-QZVPPD, AUX_BASIS_CORR=rimp2-def2-QZVPPD, SCF_ALGORITHM=GDM, xc_grid=000099000590, mem_total=3750, num_basis=291, num_pairs=42987, num_threads=1
N  0.9413133970  -0.7259318530  -0.0407602950
H  1.5716405510  -1.2579412010  -0.6256300060
H  0.9653843650  -1.1474291030  0.8784642620
C  1.3463463590  0.6814648600  0.0255579830
H  0.6229658610  1.2289281970  0.6270894170
H  2.3440270380  0.8500450230  0.4442523600
H  1.3251594980  1.1063840630  -0.9771313020