3
charge=0, multiplicity=1, basis=def2-QZVPPD, AUX_BASIS_CORR=rimp2-def2-QZVPPD, SCF_ALGORITHM=GDM, xc_grid=000099000590, mem_total=3750, num_basis=132, num_pairs=9017, num_threads=1
O  2.2417135690  0.0353926890  -0.0987100350
H  1.3146141590  0.0853811540  0.2148343380
H  2.7200208930  0.7021174440  0.3972015700