12
charge=0, multiplicity=1, basis=def2-QZVPPD, AUX_BASIS_CORR=rimp2-def2-QZVPPD, SCF_ALGORITHM=GDM, xc_grid=000099000590, mem_total=3750, num_basis=585, num_pairs=156683, num_threads=1
H  0.1756912920  1.2746492060  1.5919371650
H  1.6929023970  1.1346031020  2.5238394470
H  0.2558291220  0.1925349830  3.0017179180
H  3.8810479150  0.4495584440  -1.2395120370
H  2.3685289520  1.0207384950  -1.9701121010
H  3.3924107150  2.1582071610  -1.0515875750
O  1.1816579870  -0.5291654880  1.3668560500
C  1.8370154100  -0.3517562580  0.2305073040
O  1.9486097130  -1.2320596210  -0.5903001610
O  2.3502366400  0.8750341250  0.1042731610
C  3.0447680630  1.1340514350  -1.1267506310
C  0.8113912660  0.6078719640  2.1689441060