12
charge=0, multiplicity=1, basis=def2-QZVPPD, AUX_BASIS_CORR=rimp2-def2-QZVPPD, SCF_ALGORITHM=GDM, xc_grid=000099000590, mem_total=3750, num_basis=585, num_pairs=156680, num_threads=1
H  -3.2683369530  0.6243630380  0.8888314720
H  -3.2683369530  0.6243630380  -0.8888314720
H  -4.1048335640  -0.6730785940  0.0000000000
H  0.9571471120  1.3603006390  -0.8859806440
H  0.9571471120  1.3603006390  0.8859806440
H  0.1927118660  2.7089411230  0.0000000000
O  -2.1005918290  -0.8592299660  0.0000000000
C  -0.8774634390  -0.3316504640  0.0000000000
O  0.1121259340  -1.0135832640  0.0000000000
O  -0.8951808310  1.0084577200  0.0000000000
C  0.3959208540  1.6439120480  0.0000000000
C  -3.2532201590  -0.0015311490  0.0000000000