26
charge=0, multiplicity=1, basis=def2-QZVPPD, AUX_BASIS_CORR=rimp2-def2-QZVPPD, SCF_ALGORITHM=GDM, xc_grid=000099000590, mem_total=30000, num_basis=1257, num_pairs=633427, num_threads=8
H  -0.1588414720  -0.1220323810  1.9947456840
H  -2.8610752460  -2.5815648260  -0.2493412080
H  -1.0833398810  -2.3403356730  1.4632690690
H  -2.7458360120  1.6506356120  -0.9141786660
H  0.1275315770  2.1533260730  1.1449722520
H  -3.6910552590  -0.5588780660  -1.4210467370
H  -1.0209949190  2.8772081870  0.1867128490
C  -2.4486164150  -1.6097749680  -0.0220498390
C  -1.4513702580  -1.4699937650  0.9373262460
C  -0.9224604740  -0.2241158360  1.2364633970
C  -1.3720151350  0.9218681510  0.5676721350
C  -2.3826742250  0.7760349380  -0.3903580610
C  -2.9123726750  -0.4729038280  -0.6756482180
N  -0.8468716580  2.1674188480  0.8789259610
H  -0.0265376660  -0.9245538460  -1.6589119200
H  1.4703896300  -0.8776530730  -2.6300516990
H  0.1414117410  0.2587475390  -2.9758673680
H  2.9730192440  -2.4484556420  0.8432190570
H  3.7277884970  -0.8573952820  1.1479915420
H  2.1495317900  -1.2378593100  1.8631172630
O  1.1926490370  0.7281882910  -1.3233763010
C  1.8383349020  0.3721184470  -0.2181466010
O  2.1221104050  1.1631541250  0.6447017310
O  2.1379227170  -0.9330688040  -0.1917038080
C  2.7925226040  -1.3907393460  0.9999429470
C  0.6665230210  -0.2862844540  -2.1996133290