10
charge=0, multiplicity=1, basis=def2-QZVPPD, AUX_BASIS_CORR=rimp2-def2-QZVPPD, SCF_ALGORITHM=GDM, xc_grid=000099000590, mem_total=3750, num_basis=420, num_pairs=87534, num_threads=1
H  -3.2502833830  -0.9133036730  0.1296611310
H  -1.8333951150  -1.4806379860  -0.7617713050
H  -1.9596294860  -1.7500699760  0.9877748050
H  -0.5524845730  0.0913886980  0.6891402180
H  -1.1492614090  2.1179431640  -0.3193582530
H  -2.7434382370  1.4686465570  -0.6908777020
H  -1.3289973930  0.8520939510  -1.5512133210
C  -2.1670810560  -1.0367141410  0.1910763960
N  -1.5386648900  0.2346292090  0.4945999820
C  -1.6902961860  1.2064343850  -0.5707104550