8
charge=0, multiplicity=1, basis=def2-QZVPPD, mem_total=3750, SCF_ALGORITHM=GDM_QLS, AUX_BASIS_CORR=rimp2-def2-QZVPPD, xc_grid=000099000590, num_basis=390, num_pairs=75127, num_threads=1
C  -2.1035554150  0.0584755860  -0.0434850580
O  -1.8837517320  -1.1062528380  -0.2787896240
O  -1.1367392360  0.9663178740  0.1437159460
H  -0.2632272620  0.5244746180  0.0496419500
C  -3.4752112710  0.6640972520  0.0755193360
H  -4.2295917860  -0.1002346510  -0.0740448080
H  -3.5931564740  1.1196379440  1.0578049620
H  -3.5933973920  1.4553999980  -0.6636398300