16
charge=0, multiplicity=1, basis=def2-QZVPPD, AUX_BASIS_CORR=rimp2-def2-QZVPPD, SCF_ALGORITHM=GDM, xc_grid=000099000590, mem_total=7500, num_basis=747, num_pairs=231557, num_threads=2
N  3.2196295550  -0.6321544380  0.6398683700
H  2.4749395350  -0.9282266060  0.0169055240
H  3.3080379620  -1.3356316720  1.3621899120
H  4.0818833410  -0.6449781770  0.1098475310
H  -2.2654756910  0.1996596300  1.6138369200
H  -2.9344753360  0.7026242540  0.0463519310
H  -3.4090314480  -0.8616842430  0.7539033720
H  1.0146926250  1.7657678150  -1.2621710460
H  1.6588276350  1.3009680480  0.3293915040
H  0.6327156140  2.7606171980  0.1696242360
O  -1.5577833150  -0.8632862460  -0.0363880710
C  -0.4079891690  -0.2496056000  -0.3256163210
O  0.4890803700  -0.8160041900  -0.8913183540
O  -0.3938626970  1.0251864950  0.0786016730
C  0.8207463470  1.7557457710  -0.1924153520
C  -2.6020283090  -0.1459295410  0.6394139540