10
charge=0, multiplicity=1, basis=def2-QZVPPD, AUX_BASIS_CORR=rimp2-def2-QZVPPD, SCF_ALGORITHM=GDM, xc_grid=000099000590, mem_total=3750, num_basis=420, num_pairs=87436, num_threads=1
H  -3.7817132000  0.4997897090  1.2945313870
H  -3.1090562950  -1.1341895700  1.2547627950
H  -2.2379584840  0.1725419510  2.0797120030
H  -1.2117489470  -0.0839255050  0.0000000000
H  -2.2379584840  0.1725419510  -2.0797120030
H  -3.7817132000  0.4997897090  -1.2945313870
H  -3.1090562950  -1.1341895700  -1.2547627950
C  -2.8498221590  -0.0635822970  1.2097242250
N  -2.1464033050  0.3156675990  0.0000000000
C  -2.8498221590  -0.0635822970  -1.2097242250