12
charge=0, multiplicity=1, basis=def2-QZVPPD, AUX_BASIS_CORR=rimp2-def2-QZVPPD, SCF_ALGORITHM=GDM, xc_grid=000099000590, mem_total=3750, num_basis=552, num_pairs=137780, num_threads=1
O  2.6481133510  -0.0050620300  0.0512705930
H  1.8056840320  0.4760844050  -0.0346870350
H  3.3003031280  0.6569250410  0.2869033430
H  -2.7507207110  -0.4837920610  0.1608970770
H  -2.4304561680  1.2155216810  0.0876055120
H  0.5805831410  -1.4983885560  0.5601725210
H  -0.0406867900  -1.6437433610  -1.0704416640
H  -1.0839688000  -2.0790120110  0.2934177720
O  0.0288913820  0.9844732410  -0.1034497250
C  -0.7590061680  0.0529918590  -0.0163227200
N  -2.0928752690  0.2688586860  0.0931620300
C  -0.3143643000  -1.3895310050  -0.0466363880