6
charge=0, multiplicity=1, basis=def2-QZVPPD, AUX_BASIS_CORR=rimp2-def2-QZVPPD, SCF_ALGORITHM=GDM, xc_grid=000099000590, mem_total=3750, num_basis=288, num_pairs=41619, num_threads=1
H  1.7378523290  -1.7610504030  0.0000000000
H  3.2201866050  -1.3316851560  -0.8867750020
H  3.2201866050  -1.3316851560  0.8867750020
C  2.6234409950  -1.1270364150  0.0000000000
C  2.1780829940  0.2517599060  0.0000000000
N  1.7787926940  1.3287790660  0.0000000000