14
charge=0, multiplicity=1, basis=def2-QZVPPD, AUX_BASIS_CORR=rimp2-def2-QZVPPD, SCF_ALGORITHM=GDM, xc_grid=000099000590, mem_total=3750, num_basis=642, num_pairs=169508, num_threads=1
C  2.4493191840  0.0443712080  0.0000000000
H  1.3847683160  -0.0581368620  0.0000000000
C  3.6406946960  0.1613880520  0.0000000000
H  4.6967753740  0.2648080000  0.0000000000
H  -0.7606620650  -2.2949545610  0.8778863440
H  -2.2965376570  -1.9992062260  0.0000000000
H  -0.7606620650  -2.2949545610  -0.8778863440
H  -1.9700827180  2.2005115810  -0.8775851490
H  -0.4335125680  1.9159628150  0.0000000000
H  -1.9700827180  2.2005115810  0.8775851490
C  -1.2187148420  -1.8390391140  0.0000000000
N  -0.8768932270  -0.4197968550  0.0000000000
N  -1.8533872370  0.3277436570  0.0000000000
C  -1.5102061750  1.7461245000  0.0000000000