8
charge=0, multiplicity=1, basis=def2-QZVPPD, AUX_BASIS_CORR=rimp2-def2-QZVPPD, SCF_ALGORITHM=GDM, xc_grid=000099000590, mem_total=3750, num_basis=324, num_pairs=48394, num_threads=1
N  -1.6548831450  -0.0000000040  -0.0606936130
H  -0.6699880290  0.0000000780  0.1922479370
H  -2.0801281570  -0.8128400070  0.3669679280
H  -2.0801282990  0.8128399570  0.3669678690
N  1.5879696390  -0.0000000050  0.0244953060
H  2.1302226660  -0.8152921060  0.2805171720
H  2.1302225000  0.8152921970  0.2805172090
H  1.4996563350  0.0000000060  -0.9841918690