17
charge=0, multiplicity=1, basis=def2-QZVPPD, AUX_BASIS_CORR=rimp2-def2-QZVPPD, SCF_ALGORITHM=GDM, xc_grid=000099000590, mem_total=7500, num_basis=771, num_pairs=241592, num_threads=2
H  -3.9856848760  -0.2701111150  -0.6963488010
H  -3.4425783440  1.4100106020  -0.7720418730
H  -2.9006773120  0.2362295750  -1.9881285550
H  -1.1564623830  0.4539830680  -0.4290054460
H  -1.2737503010  -0.0479577190  1.8361969530
H  -2.9799384750  -0.4623008190  1.6644517110
H  -2.4705560490  1.2266510350  1.5449996780
C  -3.1313103580  0.3665564970  -0.9318506160
N  -1.9900254080  -0.0318013250  -0.1257316750
C  -2.1883723800  0.1925537390  1.2963308510
H  1.5199305020  -2.0367193500  -0.8915450740
H  1.3729734480  -1.9315818300  0.8792711520
H  -0.0650885530  -1.7284243850  -0.1471532330
C  1.0005249970  -1.5421712070  -0.0694320750
N  1.1645756720  -0.0782446160  -0.1430416840
N  2.3117345090  0.3418948370  -0.0608106130
N  3.3242615760  0.8378135740  0.0045706590