23
charge=0, multiplicity=1, basis=def2-QZVPPD, AUX_BASIS_CORR=rimp2-def2-QZVPPD, SCF_ALGORITHM=GDM, xc_grid=000099000590, mem_total=15000, num_basis=1062, num_pairs=429042, num_threads=4
H  -3.1731920270  -1.4649505920  -1.5103368520
H  -3.2826053530  0.2566988890  -1.8973205420
H  -1.7006093600  -0.5041717730  -1.6389667360
H  -2.2402885190  0.5977956630  0.3398573290
H  -4.0919424660  0.1372703800  1.7108669610
H  -4.6428995520  -1.0705959950  0.5533631300
H  -4.7358499940  0.6439953060  0.1360444430
C  -2.7349445180  -0.4879100220  -1.2994539140
N  -2.7764219660  -0.2329848180  0.1301265810
C  -4.1263409860  -0.1142942210  0.6517924140
H  -0.3969088960  -0.9159066280  0.6502718230
H  3.7424166530  -1.8356791130  -0.0571451510
H  1.4508346870  -2.5663722600  0.5334680810
H  2.3388620420  2.1986030420  -0.4048178800
H  0.1140694200  2.4945271450  0.0053298560
H  4.1763722130  0.5574852990  -0.5260466230
C  2.9385379610  -1.1163552570  -0.0040602590
C  1.6505731530  -1.5241645500  0.3277883870
C  0.6092808530  -0.6102320550  0.3996554490
C  0.8659956960  0.7307223730  0.1337578550
C  2.1483699590  1.1523817760  -0.1995905880
C  3.1811255900  0.2251933990  -0.2668712990
O  -0.1881646880  1.6063671800  0.2116350160