7
charge=0, multiplicity=1, basis=def2-QZVPPD, AUX_BASIS_CORR=rimp2-def2-QZVPPD, SCF_ALGORITHM=GDM, xc_grid=000099000590, mem_total=3750, num_basis=294, num_pairs=41369, num_threads=1
O  -1.4706681740  0.0576047090  0.0000000000
H  -0.5022751260  -0.0540609650  0.0000000000
H  -1.8316367090  -0.8307095390  0.0000000000
N  1.4550902940  -0.0126147970  0.0000000000
H  1.6657922020  0.9777692660  0.0000000000
H  1.8960262800  -0.4160395300  -0.8168380660
H  1.8960262800  -0.4160395300  0.8168380660