17
charge=0, multiplicity=1, basis=def2-QZVPPD, AUX_BASIS_CORR=rimp2-def2-QZVPPD, SCF_ALGORITHM=GDM, xc_grid=000099000590, mem_total=7500, num_basis=840, num_pairs=276108, num_threads=2
C  2.3657853950  0.0966410880  0.0000000000
O  1.8240829980  1.1753725670  0.0000000000
O  1.6895746100  -1.0638217790  0.0000000000
H  0.7330971410  -0.8677857790  0.0000000000
C  3.8526429590  -0.1211108330  0.0000000000
H  4.3640056000  0.8348729930  0.0000000000
H  4.1400934010  -0.6994242250  -0.8770653990
H  4.1400934010  -0.6994242250  0.8770653990
H  -4.3384953160  -0.5732498480  0.0000000000
H  -3.3032494040  1.9588595150  0.0000000000
H  -2.1463899690  -2.2084982100  0.0000000000
H  -0.5773845440  1.5785102840  0.0000000000
C  -2.7567787370  1.0331559520  0.0000000000
C  -3.3002498370  -0.2942053600  0.0000000000
C  -2.2457866270  -1.1397018680  0.0000000000
O  -1.0791481330  -0.4267892680  0.0000000000
C  -1.4113606650  0.9018905390  0.0000000000