11
charge=0, multiplicity=1, basis=def2-QZVPPD, AUX_BASIS_CORR=rimp2-def2-QZVPPD, SCF_ALGORITHM=GDM, xc_grid=000099000590, mem_total=3750, num_basis=519, num_pairs=126164, num_threads=1
H  -0.5887779780  -1.7503135820  0.1231709650
H  0.7219494040  -2.6949452460  0.8921993330
H  0.8321716260  -2.2321748050  -0.8281455200
H  1.8911863040  2.2919311550  -0.3591911650
C  1.1009725600  0.3215944740  -0.2065312600
O  1.1825074200  -0.7510502500  0.5939099510
C  0.4825985880  -1.9340252290  0.1575199540
C  1.8493548510  1.4910070950  0.3707577150
O  0.4898551150  0.3357648990  -1.2472724220
H  1.3341624430  1.8410768370  1.2651044120
H  2.8529114770  1.1934676390  0.6674536290