22
charge=0, multiplicity=1, basis=def2-QZVPPD, AUX_BASIS_CORR=rimp2-def2-QZVPPD, SCF_ALGORITHM=GDM, xc_grid=000099000590, mem_total=15000, num_basis=1032, num_pairs=409711, num_threads=4
H  -1.9607310590  2.3014995270  -0.4222892370
H  -4.0464819000  -1.4207720730  0.0670114690
H  -4.0752506890  1.0118714110  -0.4047905890
H  0.2148790940  -1.2501718460  0.5251469260
H  1.1690215030  0.7989879040  0.1349809710
H  -1.8873214940  -2.5432636220  0.5293406330
C  -3.1258084660  -0.8560449490  0.0597669740
C  -3.1387676280  0.5099414910  -0.2044698680
C  -1.9607174670  1.2409851940  -0.2162496320
C  -0.7457618900  0.6067140720  0.0401772220
C  -0.7259635310  -0.7623874060  0.3109610720
C  -1.9135331780  -1.4832546790  0.3171894810
O  0.3816106770  1.3610063820  0.0164332010
H  3.4955920900  0.5934182650  1.7591511240
H  4.5127744860  -0.6042212170  0.9256925820
H  4.2924145370  1.0188464320  0.2265190770
H  1.9430115200  -1.0463047230  -1.6009880250
H  3.5620794860  -1.6110116680  -1.1253475290
H  3.3514432120  0.0182587060  -1.8151523590
C  3.8041338650  0.2170029810  0.7878689950
O  2.6378720530  -0.2340200710  0.1206672790
C  2.8970225120  -0.7448678310  -1.1771101390