3
charge=0, multiplicity=1, basis=def2-QZVPPD, AUX_BASIS_CORR=rimp2-def2-QZVPPD, SCF_ALGORITHM=GDM, xc_grid=000099000590, mem_total=3750, num_basis=132, num_pairs=9017, num_threads=1
O  -2.8138475820  -0.5794403730  0.0000000000
H  -1.8644054860  -0.7921500540  0.0000000000
H  -3.2629567610  -1.4263789850  0.0000000000