3
charge=0, multiplicity=1, basis=def2-QZVPPD, AUX_BASIS_CORR=rimp2-def2-QZVPPD, SCF_ALGORITHM=GDM, xc_grid=000099000590, mem_total=3750, num_basis=132, num_pairs=9017, num_threads=1
O  -1.9525732000  0.1836871120  0.0000000000
H  -1.0746469130  -0.2472984040  0.0000000000
H  -2.5918025990  -0.5308678440  0.0000000000