10
charge=0, multiplicity=1, basis=def2-QZVPPD, AUX_BASIS_CORR=rimp2-def2-QZVPPD, SCF_ALGORITHM=GDM, xc_grid=000099000590, mem_total=3750, num_basis=420, num_pairs=87534, num_threads=1
H  -2.2441115620  1.2853224190  0.2054813900
H  -1.2206311120  1.2564521270  -1.2352557100
H  -0.6734002620  2.0816306320  0.2375610120
H  0.3920148900  0.0000000000  0.1985019010
H  -0.6734002620  -2.0816306320  0.2375610120
H  -2.2441115620  -1.2853224190  0.2054813900
H  -1.2206311120  -1.2564521270  -1.2352557100
C  -1.2089553970  1.2085400590  -0.1338249790
N  -0.6036958980  0.0000000000  0.3925391940
C  -1.2089553970  -1.2085400590  -0.1338249790