4
charge=0, multiplicity=1, basis=def2-QZVPPD, AUX_BASIS_CORR=rimp2-def2-QZVPPD, SCF_ALGORITHM=GDM, xc_grid=000099000590, mem_total=3750, num_basis=192, num_pairs=18800, num_threads=1
C  -2.4985400880  0.3141385980  0.0031077150
H  -1.5079849590  0.7158445140  0.0674774820
C  -3.5971644890  -0.1564478830  -0.0714929920
H  -4.5741585920  -0.5650695010  -0.1366200360