6
charge=0, multiplicity=1, basis=def2-QZVPPD, AUX_BASIS_CORR=rimp2-def2-QZVPPD, SCF_ALGORITHM=GDM, xc_grid=000099000590, mem_total=3750, num_basis=291, num_pairs=42718, num_threads=1
H  2.0049438880  1.7270335270  0.8755570060
H  2.0049438880  1.7270335270  -0.8755570060
H  0.5486321300  1.0991588060  0.0000000000
C  1.6355425620  1.1895040880  0.0000000000
N  2.3208766720  -0.1177994100  0.0000000000
O  1.5798529100  -1.0631459240  0.0000000000