6
charge=0, multiplicity=1, basis=def2-QZVPPD, AUX_BASIS_CORR=rimp2-def2-QZVPPD, SCF_ALGORITHM=GDM, xc_grid=000099000590, mem_total=3750, num_basis=288, num_pairs=41591, num_threads=1
H  5.2970393720  1.1953834910  -0.8858909290
H  5.8216357720  -0.2462601420  0.0000416580
H  5.2970028160  1.1953920130  0.8859387140
C  5.1223615330  0.5877630400  0.0000232080
C  3.7581866060  0.0905394910  -0.0000025580
N  2.6815798330  -0.3029843810  -0.0000226780