10
charge=0, multiplicity=1, basis=def2-QZVPPD, AUX_BASIS_CORR=rimp2-def2-QZVPPD, SCF_ALGORITHM=GDM, xc_grid=000099000590, mem_total=3750, num_basis=480, num_pairs=113390, num_threads=1
H  3.5993161950  -1.6962696730  0.8559042810
H  5.1830451600  0.4106655190  0.2280657700
H  3.5613890760  2.2445175520  -0.9390079430
H  1.0804091370  1.1481174170  -0.9497908470
N  2.0627525980  -0.4937126510  -0.0086436210
C  3.3468468450  -0.7659407190  0.3805511030
C  4.1262052070  0.3175265580  0.0505138900
C  3.2761549870  1.2785583590  -0.5612115520
C  2.0079522400  0.7481777300  -0.5832162750
H  1.2720077340  -1.1072621980  0.1056314860