7
charge=0, multiplicity=1, basis=def2-QZVPPD, AUX_BASIS_CORR=rimp2-def2-QZVPPD, SCF_ALGORITHM=GDM, xc_grid=000099000590, mem_total=3750, num_basis=291, num_pairs=42987, num_threads=1
N  3.0871613050  -0.7362752040  0.0000000860
H  3.1215963980  -1.3382791630  0.8128248720
H  3.1215964840  -1.3382794680  -0.8128244700
C  4.2166814800  0.2047078250  -0.0000000110
H  4.1452897980  0.8437470420  -0.8775622890
H  5.1969867350  -0.2781941240  0.0000001340
H  4.1452896810  0.8437473380  0.8775620430