10
charge=0, multiplicity=1, basis=def2-QZVPPD, AUX_BASIS_CORR=rimp2-def2-QZVPPD, SCF_ALGORITHM=GDM, xc_grid=000099000590, mem_total=3750, num_basis=480, num_pairs=113390, num_threads=1
H  1.9217513940  0.2146164300  2.1295297100
H  4.3723924300  -0.5823037270  1.2871270900
H  4.3516584640  -0.3316488760  -1.4131013660
H  1.8897022860  0.6037308780  -2.0569600050
N  1.5700584160  0.5301036520  0.0501262760
C  2.3202093680  0.1593205740  1.1327358650
C  3.5550983980  -0.2405704520  0.6768023040
C  3.5442232720  -0.1092855920  -0.7379358960
C  2.3031181400  0.3659920520  -1.0936335930
H  0.5988582890  0.8112295610  0.0834489560