25
charge=0, multiplicity=1, basis=def2-QZVPPD, AUX_BASIS_CORR=rimp2-def2-QZVPPD, SCF_ALGORITHM=GDM, xc_grid=000099000590, mem_total=30000, num_basis=1191, num_pairs=563079, num_threads=8
C  1.0983413170  -1.1097882460  -1.4684721420
H  0.2723773850  -1.6037545420  -0.9579411600
H  1.5454498130  -1.8233662720  -2.1555324960
H  0.7009768790  -0.2644996390  -2.0260521540
C  2.1361320780  -0.7091778730  -0.4407613280
O  2.8924741310  -1.5219271110  0.0656556990
N  2.1665709840  0.6094529100  -0.1155988750
H  1.4240723610  1.2070430070  -0.4372047500
C  3.0224905110  1.0946123870  0.9479348520
H  4.0425572950  0.7534568810  0.7889618160
H  3.0030731730  2.1813214090  0.9480878990
H  2.7013439650  0.7314167670  1.9268714550
H  -0.2020871040  0.7172824680  1.7316243900
H  -3.2375815040  -2.1950613280  0.8849304100
H  -1.4373788630  -1.3352637730  2.3521748910
H  -2.5541486240  1.0560389500  -1.8221812600
H  -0.9178221300  2.5300073370  -1.1810178960
H  -3.7980497820  -0.9813527050  -1.1993850340
C  -2.7009011300  -1.2970389570  0.6176172750
C  -1.6903793570  -0.8125068750  1.4411263540
C  -0.9934224770  0.3379293950  1.1033753060
C  -1.3076049080  1.0033828810  -0.0748700750
C  -2.3189769880  0.5339671810  -0.9032087210
C  -3.0141867020  -0.6163059700  -0.5513946030
O  -0.5559998970  2.1093566310  -0.3961940110