22
charge=0, multiplicity=1, basis=def2-QZVPPD, AUX_BASIS_CORR=rimp2-def2-QZVPPD, SCF_ALGORITHM=GDM, xc_grid=000099000590, mem_total=15000, num_basis=1029, num_pairs=406560, num_threads=4
H  1.7235405000  0.4392206560  -2.1007949840
H  4.1838961560  -0.4258037920  -1.3562447320
H  4.1838961560  -0.4258037920  1.3562447320
H  1.7235405000  0.4392206560  2.1007949840
N  1.3879950650  0.5596718480  0.0000000000
C  2.1295463980  0.2911175640  -1.1164414760
C  3.3702152550  -0.1463932700  -0.7102460350
C  3.3702152550  -0.1463932700  0.7102460350
C  2.1295463980  0.2911175640  1.1164414760
H  0.4089150150  0.8244695840  0.0000000000
C  -3.8606666690  0.8310225430  0.0000000000
H  -3.9773665100  1.4639832060  0.8776076240
H  -3.9773665100  1.4639832060  -0.8776076240
H  -4.6407478580  0.0725055000  0.0000000000
C  -2.4618051100  0.2592412510  0.0000000000
O  -1.4775563400  0.9902965570  0.0000000000
N  -2.3624704360  -1.0869381710  0.0000000000
H  -3.2053636560  -1.6301685640  0.0000000000
C  -1.0826207480  -1.7771038780  0.0000000000
H  -0.4968615950  -1.5154568830  -0.8789015200
H  -1.2652740350  -2.8475756390  0.0000000000
H  -0.4968615950  -1.5154568830  0.8789015200