10
charge=0, multiplicity=1, basis=def2-QZVPPD, AUX_BASIS_CORR=rimp2-def2-QZVPPD, SCF_ALGORITHM=GDM, xc_grid=000099000590, mem_total=3750, num_basis=420, num_pairs=87532, num_threads=1
H  0.8878914330  -0.7542154270  -1.4263287250
H  2.5394605800  -1.3134570520  -1.1322653840
H  1.1622944190  -2.1263098300  -0.3592775290
H  2.0860402390  -0.6840280010  1.2433053000
H  2.2136662560  1.6535840260  1.0605910800
H  1.5465814350  1.5528203530  -0.5660070050
H  3.1878961590  0.9729432940  -0.2595419950
C  1.5564715300  -1.1591373820  -0.6658946030
N  1.5883610060  -0.2554093510  0.4754063580
C  2.1752824050  1.0398843070  0.1624006230