21
charge=0, multiplicity=1, basis=def2-QZVPPD, AUX_BASIS_CORR=rimp2-def2-QZVPPD, SCF_ALGORITHM=GDM, xc_grid=000099000590, mem_total=15000, num_basis=939, num_pairs=363832, num_threads=4
C  -1.8135515230  0.0224925370  0.0000000000
O  -1.4621550120  1.1833846660  0.0000000000
O  -0.9676243750  -1.0036160340  0.0000000000
H  -0.0084392570  -0.6570197720  0.0000000000
C  -3.2543915430  -0.4185108720  0.0000000000
H  -3.4509713110  -1.0344300120  0.8767125600
H  -3.4509713110  -1.0344300120  -0.8767125600
H  -3.9076350960  0.4472697110  0.0000000000
H  2.6335914560  1.2494643690  1.2678816200
H  1.5402495400  0.1154263570  2.0855508030
H  0.8690919380  1.4883879320  1.1964781170
H  0.8690919380  1.4883879320  -1.1964781170
H  2.6335914560  1.2494643690  -1.2678816200
H  1.5402495400  0.1154263570  -2.0855508030
H  3.5626752570  -0.7890980280  0.0000000000
H  2.3879717820  -1.7831654650  -0.8832789150
C  1.6612229950  0.7439092530  1.2047990300
N  1.5553238330  -0.0775645240  0.0000000000
C  1.6612229950  0.7439092530  -1.2047990300
C  2.5300585680  -1.1629798870  0.0000000000
H  2.3879717820  -1.7831654650  0.8832789150