7
charge=0, multiplicity=1, basis=def2-QZVPPD, AUX_BASIS_CORR=rimp2-def2-QZVPPD, SCF_ALGORITHM=GDM, xc_grid=000099000590, mem_total=3750, num_basis=354, num_pairs=61501, num_threads=1
H  -1.4219662720  -1.0935984900  1.2631261620
H  -2.8722303600  -1.5917228770  0.3225291710
H  -3.0669778860  -0.6082754720  1.8004389950
C  -2.4276610390  -0.8266847880  0.9539559920
O  -2.3725661270  0.4308437520  0.1983651670
C  -1.6010169220  0.4423027120  -0.8207120990
N  -0.9222275600  0.5056412280  -1.7540311610