10
charge=0, multiplicity=1, basis=def2-QZVPPD, AUX_BASIS_CORR=rimp2-def2-QZVPPD, SCF_ALGORITHM=GDM, xc_grid=000099000590, mem_total=3750, num_basis=456, num_pairs=96657, num_threads=1
O  -2.1539160540  0.2605440380  0.0000000000
H  -1.4236492910  -0.3775048590  0.0000000000
H  -2.9588777180  -0.2604844190  0.0000000000
H  1.5708135740  1.5920872570  0.8745233710
H  1.5708135740  1.5920872570  -0.8745233710
H  0.0169667630  1.4537677970  0.0000000000
H  2.2949301890  -0.6636263720  0.0000000000
C  1.0664032090  1.1742667100  0.0000000000
C  1.2463316680  -0.3096971990  0.0000000000
O  0.3502818190  -1.1197576410  0.0000000000