14
charge=0, multiplicity=1, basis=def2-QZVPPD, AUX_BASIS_CORR=rimp2-def2-QZVPPD, SCF_ALGORITHM=GDM, xc_grid=000099000590, mem_total=3750, num_basis=615, num_pairs=165882, num_threads=1
N  -1.7382575900  -0.0363422730  -0.6996631510
H  -0.9691515280  0.6232445350  -0.7092539010
H  -2.4121238600  0.2666612780  -1.3896488230
C  -2.3433216570  -0.0840295520  0.6302629890
H  -3.1478013980  -0.8192218180  0.6413155930
H  -2.7506342220  0.8692155270  0.9867975310
H  -1.5946736460  -0.4112870840  1.3517700860
H  2.1070252870  -1.7013749700  -0.7631632790
H  1.5235417060  -1.7942530630  0.8822731820
H  0.3919518240  -1.3136855740  -0.4214978650
H  2.8520559520  0.3301116940  0.5361621920
C  1.4131709790  -1.2424819010  -0.0546306700
C  1.8162936180  0.1817080150  0.1694151260
O  1.1085224120  1.1400980400  -0.0170098490