6
charge=0, multiplicity=1, basis=def2-QZVPPD, AUX_BASIS_CORR=rimp2-def2-QZVPPD, SCF_ALGORITHM=GDM, xc_grid=000099000590, mem_total=3750, num_basis=261, num_pairs=34660, num_threads=1
O  2.9997011750  -0.3199436410  -0.1729177950
H  2.3880786880  0.4218185790  -0.0588813230
C  2.3442607180  -1.5075910360  0.2365356750
H  3.0358962440  -2.3331206310  0.0783028250
H  1.4366789610  -1.6986771420  -0.3432261630
H  2.0743357530  -1.4851808880  1.2972530870