14
charge=0, multiplicity=1, basis=def2-QZVPPD, AUX_BASIS_CORR=rimp2-def2-QZVPPD, SCF_ALGORITHM=GDM, xc_grid=000099000590, mem_total=3750, num_basis=612, num_pairs=165329, num_threads=1
C  1.9258087360  0.0000001080  0.2022899650
H  0.8962047490  0.0000000700  0.5100810420
C  3.0701064650  0.0000000640  -0.1512945700
H  4.0849947540  0.0000000210  -0.4610663590
H  -0.7902175590  1.2833678100  -1.0784660870
H  -2.5162392180  1.2572977660  -0.6938202500
H  -1.3679542300  2.0858916270  0.3783920450
H  -1.8034384290  -0.0000002630  1.3495344310
H  -1.3679534190  -2.0858914720  0.3783922850
H  -0.7902172640  -1.2833678530  -1.0784662520
H  -2.5162388500  -1.2572981590  -0.6938201050
C  -1.5078629840  1.2151867320  -0.2597633480
N  -1.2539253360  -0.0000000180  0.5017340760
C  -1.5078625660  -1.2151868450  -0.2597633520