25
charge=0, multiplicity=1, basis=def2-QZVPPD, AUX_BASIS_CORR=rimp2-def2-QZVPPD, SCF_ALGORITHM=GDM, xc_grid=000099000590, mem_total=30000, num_basis=1191, num_pairs=532058, num_threads=8
H  -2.7526150320  -2.1724331110  0.0810736020
H  -4.2047164700  1.7983357120  -0.6746935620
H  -4.5698610110  -0.6529308950  -0.6411925480
H  -0.2101594090  1.1884267380  0.7682970060
H  0.4468930560  -1.0093729310  0.9557268950
H  -2.0129696120  2.7089678200  0.0350752020
C  -3.4138810540  1.1334711300  -0.3596382720
C  -3.6157779780  -0.2431939840  -0.3393113600
C  -2.6048535850  -1.1022745630  0.0633837370
C  -1.3679146840  -0.5900429010  0.4575455550
C  -1.1621167420  0.7919392150  0.4456843520
C  -2.1829524600  1.6408873260  0.0368674830
O  -0.4101818850  -1.4656886180  0.8371736450
C  4.0998030970  0.8925527790  0.5959906590
H  4.7442563970  1.1811825880  -0.2316311240
H  3.8142763600  1.7820174750  1.1544824240
H  4.6542494970  0.2455500850  1.2729620830
C  2.8456632070  0.1723520310  0.1611108090
O  2.0286388630  -0.2214525260  0.9897112980
N  2.6848957620  -0.0092305170  -1.1639701880
H  3.3838564980  0.3597287560  -1.7814273400
C  1.5279198510  -0.6783730940  -1.7402705760
H  1.3516417740  -1.6271945620  -1.2404387700
H  1.7219605810  -0.8598543020  -2.7932822490
H  0.6288415820  -0.0720790170  -1.6420613440