14
charge=0, multiplicity=1, basis=def2-QZVPPD, AUX_BASIS_CORR=rimp2-def2-QZVPPD, SCF_ALGORITHM=GDM, xc_grid=000099000590, mem_total=3750, num_basis=618, num_pairs=168218, num_threads=1
N  2.4540075450  -0.7881403220  -0.0202919770
H  1.6219101390  -0.5236994520  0.4939551360
H  3.0267292200  -1.3610703260  0.5855852060
H  2.1488451840  -1.3709092850  -0.7891255440
H  -2.4574928090  -0.7605514540  0.6636795030
H  -1.9727875280  -1.8888991970  -0.6320914880
H  -1.0109107470  -1.7910811860  0.8648716140
H  0.5045415220  2.4291242590  0.6346713300
H  -0.7016239400  2.2736237240  -0.6732800390
H  0.9263634280  1.5409107240  -0.8481715100
C  -1.6126414650  -1.2241317430  0.1513815580
O  -0.8328533730  -0.2619949910  -0.5236741390
O  -0.3278192110  0.6242764740  0.5238690440
C  0.1219111470  1.7825567860  -0.1531608780