6
charge=0, multiplicity=1, basis=def2-QZVPPD, AUX_BASIS_CORR=rimp2-def2-QZVPPD, SCF_ALGORITHM=GDM, xc_grid=000099000590, mem_total=3750, num_basis=261, num_pairs=34660, num_threads=1
O  -1.5953398180  0.6880932120  -0.2174494740
H  -0.7014704300  0.4416080710  0.0948046630
C  -2.4876905140  -0.3525666120  0.1158950920
H  -3.4790999000  -0.0700730650  -0.2353716390
H  -2.2184188400  -1.3018917890  -0.3624270560
H  -2.5479330560  -0.5201314120  1.1975480450