11
charge=0, multiplicity=1, basis=def2-QZVPPD, AUX_BASIS_CORR=rimp2-def2-QZVPPD, SCF_ALGORITHM=GDM, xc_grid=000099000590, mem_total=3750, num_basis=522, num_pairs=123755, num_threads=1
O  -2.6995245770  0.0126053440  0.0251417400
H  -1.8866691660  -0.5158679390  0.0098311510
H  -3.3987450370  -0.5735851610  -0.2694514030
H  2.2334316220  -1.1766214910  0.0196588590
H  0.8563669740  1.9117333270  -0.8215635660
H  0.6741852170  1.8561655960  0.9223397990
H  -0.7301384080  1.4976616740  -0.1107359000
O  -0.0308215230  -0.9895548280  -0.0048965080
C  0.7295257770  -0.0497377680  -0.0051110590
O  2.0657943450  -0.2238996190  0.0066884320
C  0.3446726970  1.3976661330  -0.0097937360