6
charge=0, multiplicity=1, basis=def2-QZVPPD, AUX_BASIS_CORR=rimp2-def2-QZVPPD, SCF_ALGORITHM=GDM, xc_grid=000099000590, mem_total=3750, num_basis=261, num_pairs=34660, num_threads=1
O  -1.8020119680  0.0000000000  -0.6883786080
H  -0.8341881540  0.0000000000  -0.7117671540
C  -2.2043328850  0.0000000000  0.6662258780
H  -3.2925706620  0.0000000000  0.6877670350
H  -1.8540754470  -0.8882924930  1.2038506890
H  -1.8540754470  0.8882924930  1.2038506890