17
charge=0, multiplicity=1, basis=def2-QZVPPD, AUX_BASIS_CORR=rimp2-def2-QZVPPD, SCF_ALGORITHM=GDM, xc_grid=000099000590, mem_total=7500, num_basis=777, num_pairs=256361, num_threads=2
H  1.8117258000  -0.9596218640  -1.8248169140
H  1.6201746480  -2.1038566510  -0.4411772930
H  0.2162136550  -1.1550771920  -1.0114860250
C  1.2998389810  -1.1735710960  -0.8955090350
N  1.5930306030  -0.0700014640  0.0654662260
O  1.3902383880  -0.2945841540  1.2472983070
O  1.9705971810  0.9940829810  -0.3905453730
H  -3.3096201340  -0.6951259100  -1.0152176130
H  -3.7055688870  -0.2892051890  0.6581903220
H  -2.8438094310  -1.7938285140  0.2816253440
H  -1.2412198770  -0.2383220830  1.0076173410
H  -0.7356846500  1.7951175430  -0.0264891210
H  -2.0004940920  1.5017917970  -1.2181192910
H  -2.4422840080  1.8711492820  0.4531671010
C  -2.9421113020  -0.7436222150  0.0107529330
N  -1.6453653950  -0.0879233720  0.0927068720
C  -1.7136902050  1.3430253760  -0.1777473960