26
charge=0, multiplicity=1, basis=def2-QZVPPD, AUX_BASIS_CORR=rimp2-def2-QZVPPD, SCF_ALGORITHM=GDM, xc_grid=000099000590, mem_total=30000, num_basis=1191, num_pairs=540975, num_threads=8
H  -2.1709260140  2.3711920660  0.0000000000
H  -4.3779640930  -1.3131270840  0.0000000000
H  -4.3325159590  1.1653617250  0.0000000000
H  -0.0936645260  -1.3615917830  0.0000000000
H  0.9496900950  0.7053794360  0.0000000000
H  -2.2401455820  -2.5651193580  0.0000000000
C  -3.4360356520  -0.7846340160  0.0000000000
C  -3.4066840110  0.6066856530  0.0000000000
C  -2.2014882260  1.2912185730  0.0000000000
C  -0.9951620980  0.5881133740  0.0000000000
C  -1.0219950030  -0.8087949010  0.0000000000
C  -2.2360717580  -1.4836760870  0.0000000000
O  0.1537468140  1.2976279840  0.0000000000
H  3.7125637470  -1.3221844260  -1.2849932500
H  2.5189710720  -0.2780655220  -2.0837317750
H  1.9839945620  -1.7112549910  -1.2050639900
H  1.9839945620  -1.7112549910  1.2050639900
H  3.7125637470  -1.3221844260  1.2849932500
H  2.5189710720  -0.2780655220  2.0837317750
H  4.5013704780  0.7463852710  0.0000000000
H  3.2632505830  1.6650171750  0.8820222980
C  2.7035028850  -0.8945124780  -1.2060593740
N  2.5413712130  -0.0906436030  0.0000000000
C  2.7035028850  -0.8945124780  1.2060593740
C  3.4468746030  1.0547100730  0.0000000000
H  3.2632505830  1.6650171750  -0.8820222980