3
charge=0, multiplicity=1, basis=def2-QZVPPD, AUX_BASIS_CORR=rimp2-def2-QZVPPD, SCF_ALGORITHM=GDM, xc_grid=000099000590, mem_total=3750, num_basis=132, num_pairs=9017, num_threads=1
O  2.8743497880  0.1673643620  -0.0869393660
H  1.9423889500  -0.1284187050  -0.0158952810
H  3.2728317080  -0.0413845460  0.7599689760