4
charge=0, multiplicity=1, basis=def2-QZVPPD, AUX_BASIS_CORR=rimp2-def2-QZVPPD, SCF_ALGORITHM=GDM, xc_grid=000099000590, mem_total=3750, num_basis=192, num_pairs=18800, num_threads=1
C  -2.5780453140  -0.3153244220  0.0010401010
H  -1.5855784640  -0.7115157370  0.0130101920
C  -3.6810582780  0.1497851460  -0.0127689020
H  -4.6617700990  0.5546375960  -0.0248591070