15
charge=0, multiplicity=1, basis=def2-QZVPPD, AUX_BASIS_CORR=rimp2-def2-QZVPPD, SCF_ALGORITHM=GDM, xc_grid=000099000590, mem_total=7500, num_basis=735, num_pairs=222137, num_threads=2
C  -3.2590111690  -0.1940060280  0.0000000000
H  -2.2282679700  -0.4887489980  0.0000000000
C  -4.4067943170  0.1474056790  0.0000000000
H  -5.4250959340  0.4455064020  0.0000000000
H  1.7175804940  2.4266279150  0.0000000000
H  -0.6048518080  1.5447631830  0.0000000000
C  2.5917496460  0.4557108960  0.0000000000
C  1.5404167470  1.3612325170  0.0000000000
C  0.2418392530  0.8687921670  0.0000000000
N  -0.0457740920  -0.4326242080  0.0000000000
C  0.9701959160  -1.2952416090  0.0000000000
C  2.3019547320  -0.9015026510  0.0000000000
H  0.7070717840  -2.3456144440  0.0000000000
H  3.0876630860  -1.6425857850  0.0000000000
H  3.6161370440  0.8004029030  0.0000000000