4
charge=0, multiplicity=1, basis=def2-QZVPPD, AUX_BASIS_CORR=rimp2-def2-QZVPPD, SCF_ALGORITHM=GDM, xc_grid=000099000590, mem_total=3750, num_basis=162, num_pairs=13492, num_threads=1
N  2.2558416930  0.1217438520  0.0227603040
H  2.3367526860  -0.1728718590  -0.9424988430
H  2.4683432060  1.1107443250  0.0555138060
H  2.9757876580  -0.3589874990  0.5469748110