10
charge=0, multiplicity=1, basis=def2-QZVPPD, AUX_BASIS_CORR=rimp2-def2-QZVPPD, SCF_ALGORITHM=GDM, xc_grid=000099000590, mem_total=3750, num_basis=489, num_pairs=110249, num_threads=1
O  -2.6474902380  -0.0170148490  0.1092615310
H  -1.9087936440  0.5823388040  -0.0621112370
H  -3.3591575360  0.5307755680  0.4462463030
H  -0.7031996400  -1.3252641770  0.3926109490
H  0.9750635710  -2.0018032240  0.3017928460
H  0.0956668670  -1.5101582880  -1.1780445330
C  0.2524843800  -1.3162838700  -0.1203234730
N  0.8179529830  0.0654399200  -0.0217356320
O  0.0486519510  1.0003353680  -0.2087884660
O  2.0019384540  0.1821339040  0.2151506600