6
charge=0, multiplicity=1, basis=def2-QZVPPD, AUX_BASIS_CORR=rimp2-def2-QZVPPD, SCF_ALGORITHM=GDM, xc_grid=000099000590, mem_total=3750, num_basis=261, num_pairs=34660, num_threads=1
O  1.4693210900  -0.4813094550  0.0000000000
H  0.7915355060  0.2097585740  0.0000000000
C  2.7526147120  0.1164324500  0.0000000000
H  3.4876719600  -0.6862423120  0.0000000000
H  2.9190260640  0.7335505050  0.8883182590
H  2.9190260640  0.7335505050  -0.8883182590