12
charge=0, multiplicity=1, basis=def2-QZVPPD, AUX_BASIS_CORR=rimp2-def2-QZVPPD, SCF_ALGORITHM=GDM, xc_grid=000099000590, mem_total=3750, num_basis=549, num_pairs=141287, num_threads=1
C  1.6047517670  -1.3930500160  -1.1861499470
H  1.7603940300  -2.3891432860  -0.7744187090
H  2.0788219270  -1.3681788320  -2.1657249290
H  0.5380729310  -1.2089572540  -1.2948249050
C  2.2925192270  -0.3827984030  -0.2873037800
O  3.4964624720  -0.4257786440  -0.0767537080
N  1.4847697720  0.5519721310  0.2603857900
H  0.4869942920  0.5449321230  0.0583064530
C  2.0140665980  1.5706764870  1.1416212800
H  2.7304227560  2.2104156010  0.6250644760
H  1.1885676300  2.1800692340  1.5019850660
H  2.5283606060  1.1249789230  1.9930440210