8
charge=0, multiplicity=1, basis=def2-QZVPPD, AUX_BASIS_CORR=rimp2-def2-QZVPPD, SCF_ALGORITHM=GDM, xc_grid=000099000590, mem_total=3750, num_basis=390, num_pairs=75103, num_threads=1
C  -2.8080190790  -0.1184751960  0.0672215730
O  -2.4479995570  -0.2815155170  -1.0793746870
O  -2.1633821420  0.6639751720  0.9359180110
H  -1.3644276810  1.0464271940  0.4860046560
C  -4.0183194320  -0.7703652040  0.6753308980
H  -4.5332635890  -1.3640122800  -0.0717675960
H  -4.6857295270  -0.0097732600  1.0777308280
H  -3.7113030040  -1.4032124820  1.5072789620