10
charge=0, multiplicity=1, basis=def2-QZVPPD, AUX_BASIS_CORR=rimp2-def2-QZVPPD, SCF_ALGORITHM=GDM, xc_grid=000099000590, mem_total=3750, num_basis=420, num_pairs=87532, num_threads=1
H  -0.7902175590  1.2833678100  -1.0784660870
H  -2.5162392180  1.2572977660  -0.6938202500
H  -1.3679542300  2.0858916270  0.3783920450
H  -1.8034384290  -0.0000002630  1.3495344310
H  -1.3679534190  -2.0858914720  0.3783922850
H  -0.7902172640  -1.2833678530  -1.0784662520
H  -2.5162388500  -1.2572981590  -0.6938201050
C  -1.5078629840  1.2151867320  -0.2597633480
N  -1.2539253360  -0.0000000180  0.5017340760
C  -1.5078625660  -1.2151868450  -0.2597633520