9
charge=0, multiplicity=1, basis=def2-QZVPPD, AUX_BASIS_CORR=rimp2-def2-QZVPPD, SCF_ALGORITHM=GDM, xc_grid=000099000590, mem_total=3750, num_basis=390, num_pairs=75391, num_threads=1
H  1.0697682580  -2.0221385780  -0.3095789040
H  2.6190668650  -1.2381217820  0.0767421420
H  1.2938353580  -1.2261269080  1.2654725360
H  1.0697682580  2.0221385780  -0.3095789040
H  2.6190668650  1.2381217820  0.0767421420
H  1.2938353580  1.2261269080  1.2654725360
C  1.5332315860  -1.1807503450  0.1981604330
O  1.0205992200  0.0000000000  -0.3895510550
C  1.5332315860  1.1807503450  0.1981604330