15
charge=0, multiplicity=1, basis=def2-QZVPPD, AUX_BASIS_CORR=rimp2-def2-QZVPPD, SCF_ALGORITHM=GDM, xc_grid=000099000590, mem_total=7500, num_basis=741, num_pairs=225348, num_threads=2
C  -1.8479408020  0.0297069720  -0.1031854120
O  -1.3000438620  -0.5768991050  -0.9924921100
O  -1.2072863850  0.4641953930  0.9929540300
H  -0.2576928740  0.2187725600  0.9206258340
C  -3.3072700730  0.3901039560  -0.0805731420
H  -3.7757128340  -0.0194210150  0.8132585450
H  -3.7951745900  0.0045832160  -0.9687589550
H  -3.4166728610  1.4729435500  -0.0351068540
H  0.9602468730  -1.8016058780  -0.7810335340
H  2.6023500090  -2.0044823650  -0.0918985480
H  1.1665168520  -2.3255599780  0.8968633410
C  1.5758952220  -1.7006751510  0.1108258010
N  1.5219236210  -0.3097453630  0.6098711150
N  2.1612462870  0.5138042740  -0.0419800750
N  2.7190152980  1.3435823310  -0.5601342900