18
charge=0, multiplicity=1, basis=def2-QZVPPD, AUX_BASIS_CORR=rimp2-def2-QZVPPD, SCF_ALGORITHM=GDM, xc_grid=000099000590, mem_total=7500, num_basis=840, num_pairs=278964, num_threads=2
C  -1.9532827010  0.0320881660  -0.0448213000
O  -1.7111104520  -1.0756034190  -0.4644905330
O  -1.0154743900  0.8640807400  0.4225171520
H  -0.1244412810  0.4280224760  0.3559427950
C  -3.3295389700  0.6379837820  0.0166573450
H  -4.0602266080  -0.0665895910  -0.3648355660
H  -3.5691868880  0.9053075860  1.0450373220
H  -3.3544677910  1.5558119090  -0.5694741230
H  1.2185470480  -2.0929259830  1.2802008950
H  2.3973421260  -2.2659202620  -0.0596694450
H  0.6204977610  -2.1539788050  -0.3649626700
H  2.9049021630  1.8350458260  -1.2461045010
H  1.6520306040  2.0172205940  0.0213305980
H  3.3914820420  1.9148097770  0.4378302870
C  1.4539739770  -1.8206738860  0.2507744780
N  1.4988150670  -0.3653308730  0.1760505840
N  2.5842551480  0.1051357640  -0.1573095050
C  2.6089514520  1.5615211890  -0.2334756960