20
charge=0, multiplicity=1, basis=def2-QZVPPD, AUX_BASIS_CORR=rimp2-def2-QZVPPD, SCF_ALGORITHM=GDM, xc_grid=000099000590, mem_total=15000, num_basis=930, num_pairs=334712, num_threads=4
H  -1.3702039340  0.1287944050  2.1027835940
H  -3.9574415900  -0.1774394740  1.3558961870
H  -3.9574415900  -0.1774394740  -1.3558961870
H  -1.3702039340  0.1287944050  -2.1027835940
N  -1.0142742110  0.1721216960  0.0000000000
C  -1.7980877440  0.0780441670  1.1178983590
C  -3.1027408970  -0.0767663400  0.7104442930
C  -3.1027408970  -0.0767663400  -0.7104442930
C  -1.7980877440  0.0780441670  -1.1178983590
H  -0.0058662920  0.2793179380  0.0000000000
H  2.2752688040  2.2785790220  0.8779042380
H  3.7298555130  1.7038536130  0.0000000000
H  2.2752688040  2.2785790220  -0.8779042380
H  2.6450192450  -2.3645981920  -0.8769676920
H  1.1820370240  -1.8156089290  0.0000000000
H  2.6450192450  -2.3645981920  0.8769676920
C  2.6414932740  1.7463053330  0.0000000000
N  2.0461253760  0.4133977120  0.0000000000
N  2.8656788720  -0.5034313820  0.0000000000
C  2.2715658280  -1.8360508900  0.0000000000