4
charge=0, multiplicity=1, basis=def2-QZVPPD, AUX_BASIS_CORR=rimp2-def2-QZVPPD, SCF_ALGORITHM=GDM, xc_grid=000099000590, mem_total=3750, num_basis=162, num_pairs=13492, num_threads=1
N  -2.6725446870  0.0000000000  -0.2653485510
H  -1.6774751010  0.0000000000  -0.4837101110
H  -3.0844917070  -0.8130887560  -0.7050866230
H  -3.0844917070  0.8130887560  -0.7050866230