13
charge=0, multiplicity=1, basis=def2-QZVPPD, AUX_BASIS_CORR=rimp2-def2-QZVPPD, SCF_ALGORITHM=GDM, xc_grid=000099000590, mem_total=3750, num_basis=612, num_pairs=161541, num_threads=1
N  3.2740166950  0.0592141750  0.0000000000
H  3.8525442800  -0.1019671920  0.8145381710
H  3.8525442800  -0.1019671920  -0.8145381710
H  2.5473513280  -0.6466264990  0.0000000000
H  -1.6702679680  2.1290614420  0.0000000000
H  -3.1083004620  -0.2000816200  0.0000000000
H  0.9522302520  1.3048095300  0.0000000000
H  -1.2114991390  -2.1695129020  0.0000000000
C  -2.0383685320  -0.0937380580  0.0000000000
C  -1.2849253900  1.1253582950  0.0000000000
C  0.0212940670  0.7686378500  0.0000000000
O  0.1333556060  -0.5918697660  0.0000000000
C  -1.1313734540  -1.0988209430  0.0000000000