10
charge=0, multiplicity=1, basis=def2-QZVPPD, AUX_BASIS_CORR=rimp2-def2-QZVPPD, SCF_ALGORITHM=GDM, xc_grid=000099000590, mem_total=3750, num_basis=480, num_pairs=113390, num_threads=1
H  -0.6498511010  2.1024727170  -0.2383182180
H  -3.1598866560  1.3560828090  0.4617850060
H  -3.1598866560  -1.3560828090  0.4617850060
H  -0.6498511010  -2.1024727170  -0.2383182180
N  -0.3057149620  0.0000000000  -0.3344666780
C  -1.0653242940  1.1181104280  -0.1210331500
C  -2.3306497090  0.7104969430  0.2319474510
C  -2.3306497090  -0.7104969430  0.2319474510
C  -1.0653242940  -1.1181104280  -0.1210331500
H  0.6717518390  0.0000000000  -0.5896214590