4
charge=0, multiplicity=1, basis=def2-QZVPPD, AUX_BASIS_CORR=rimp2-def2-QZVPPD, SCF_ALGORITHM=GDM, xc_grid=000099000590, mem_total=3750, num_basis=162, num_pairs=13492, num_threads=1
N  2.9960857910  -0.5554570000  0.3249066360
H  2.1419212070  -0.8531066110  -0.1352128300
H  3.2379769220  -1.2653001070  1.0045742380
H  3.7310356250  -0.5513898130  -0.3710002100