8
charge=0, multiplicity=1, basis=def2-QZVPPD, AUX_BASIS_CORR=rimp2-def2-QZVPPD, SCF_ALGORITHM=GDM, xc_grid=000099000590, mem_total=3750, num_basis=390, num_pairs=75163, num_threads=1
H  3.2793578100  0.9616034620  -0.5973532850
H  0.2172130170  -1.1488835040  0.8565591250
H  1.6290022010  -2.0337501140  0.2120338960
H  1.7776067880  -1.1707973060  1.7304985270
O  1.0104406320  0.9251176300  -0.4543605220
C  1.7340019870  0.0781974960  0.0085849280
O  3.0794179700  0.1523580910  -0.1067257530
C  1.2981538030  -1.1473867560  0.7527996850