14
charge=0, multiplicity=1, basis=def2-QZVPPD, AUX_BASIS_CORR=rimp2-def2-QZVPPD, SCF_ALGORITHM=GDM, xc_grid=000099000590, mem_total=7500, num_basis=681, num_pairs=192756, num_threads=2
C  -1.6389753660  -0.0560226000  0.0315187140
O  -1.1279486990  -1.1228379520  0.2842197430
O  -0.9346763850  1.0410648820  -0.2734517610
H  0.0258222130  0.8213253910  -0.2424767830
C  -3.1199698950  0.2018506730  0.0214360520
H  -3.6552302300  -0.7131470900  0.2492294940
H  -3.3628025650  0.9688233720  0.7558858120
H  -3.4225833270  0.5816180920  -0.9533873600
H  1.8910248260  -1.4016755580  -1.3495061990
H  1.2796326100  -1.7262545940  0.2547856400
H  3.0708513030  -1.4824619030  0.0171750340
C  2.0658439940  -1.2033906900  -0.2901064050
N  1.8227857710  0.2292617980  -0.0898966310
O  2.7514737950  0.8609314310  0.3258621750