3
charge=0, multiplicity=1, basis=def2-QZVPPD, AUX_BASIS_CORR=rimp2-def2-QZVPPD, SCF_ALGORITHM=GDM, xc_grid=000099000590, mem_total=3750, num_basis=132, num_pairs=9017, num_threads=1
O  -2.6474902380  -0.0170148490  0.1092615310
H  -1.9087936440  0.5823388040  -0.0621112370
H  -3.3591575360  0.5307755680  0.4462463030