12
charge=0, multiplicity=1, basis=def2-QZVPPD, AUX_BASIS_CORR=rimp2-def2-QZVPPD, SCF_ALGORITHM=GDM, xc_grid=000099000590, mem_total=3750, num_basis=552, num_pairs=129656, num_threads=1
O  -1.5570727270  0.4472275900  0.0000000000
H  -0.8834149530  -0.2430867850  0.0000000000
C  -2.8464484420  -0.1439497480  0.0000000000
H  -3.5729292490  0.6657174190  0.0000000000
H  -3.0156239710  -0.7582976510  0.8889364210
H  -3.0156239710  -0.7582976510  -0.8889364210
H  2.2526046370  1.4849546570  0.8760084330
H  2.2526046370  1.4849546570  -0.8760084330
H  0.6776532440  1.3434483770  0.0000000000
C  1.7353593610  1.0897126440  0.0000000000
N  1.9818026060  -0.3623626930  0.0000000000
O  0.9903772870  -1.0427942610  0.0000000000