15
charge=0, multiplicity=1, basis=def2-QZVPPD, AUX_BASIS_CORR=rimp2-def2-QZVPPD, SCF_ALGORITHM=GDM, xc_grid=000099000590, mem_total=7500, num_basis=681, num_pairs=196681, num_threads=2
O  2.0861386800  0.0368754920  -0.6403288010
H  1.2545076920  0.4881089960  -0.4192645190
C  2.8966362690  0.0055981330  0.5166703100
H  3.8093078450  -0.5338082900  0.2682094540
H  2.4093545950  -0.5136712800  1.3499534540
H  3.1732476930  1.0093788630  0.8547569220
H  -3.2984231440  -0.4422255700  0.0314046190
H  -2.9363224080  1.2494890780  0.0840869540
H  0.0444742430  -1.5061574410  -0.5526936810
H  -1.6467410860  -2.0529068750  -0.3956863550
H  -0.6740033890  -1.7106599780  1.0394990950
O  -0.4756454060  0.9661421760  0.0364363580
C  -1.2878593080  0.0518382450  0.0247664710
N  -2.6208697700  0.2957595400  0.0513703680
C  -0.8768830480  -1.4017374180  0.0134162170