4
charge=0, multiplicity=1, basis=def2-QZVPPD, AUX_BASIS_CORR=rimp2-def2-QZVPPD, SCF_ALGORITHM=GDM, xc_grid=000099000590, mem_total=3750, num_basis=162, num_pairs=13492, num_threads=1
N  3.7274680140  -0.5776682620  -0.3309207460
H  4.5557384730  -0.1982115910  -0.7721637090
H  4.0361336380  -1.1498572210  0.4451921610
H  3.2841020410  -1.1933621980  -1.0017576870