21
charge=0, multiplicity=1, basis=def2-QZVPPD, AUX_BASIS_CORR=rimp2-def2-QZVPPD, SCF_ALGORITHM=GDM, xc_grid=000099000590, mem_total=15000, num_basis=1032, num_pairs=402641, num_threads=4
H  -1.8115914360  -2.2975062660  -0.2142550930
H  -4.4659685390  0.8532000080  0.9946553950
H  -3.9871600050  -1.5607237460  0.7170539710
H  -0.5875179650  1.7789825860  -0.5854216350
H  0.7160146610  -0.0131573090  -1.1395745060
H  -2.7561965300  2.5194539980  0.3375865320
C  -3.5179359970  0.5296702200  0.5909282510
C  -3.2471092250  -0.8253304030  0.4345796760
C  -2.0317114540  -1.2478694940  -0.0842203340
C  -1.0775452790  -0.3049839990  -0.4504178770
C  -1.3369133970  1.0537561820  -0.2988508340
C  -2.5579308830  1.4632773840  0.2216999180
O  0.1113332310  -0.7595329070  -0.9558777870
H  1.5208238610  -1.1960204150  0.1775174040
H  4.6043473020  1.3656338610  0.2696911930
H  4.9350339590  -0.3693202870  0.5081570420
H  4.1378429840  0.5400584190  1.7787027950
O  2.3307369710  0.7794072030  -0.7301093520
C  2.8993017270  0.1026484130  0.1046216310
O  2.3946649910  -1.0324146560  0.5935394460
C  4.2333623680  0.4416311030  0.6982258190