17
charge=0, multiplicity=1, basis=def2-QZVPPD, AUX_BASIS_CORR=rimp2-def2-QZVPPD, SCF_ALGORITHM=GDM, xc_grid=000099000590, mem_total=7500, num_basis=780, num_pairs=255751, num_threads=2
C  -1.4918587170  0.1010620520  0.0000000000
O  -0.9269947790  1.1708614370  0.0000000000
O  -0.8473059490  -1.0705822570  0.0000000000
H  0.1291570770  -0.9011224340  0.0000000000
C  -2.9861379050  -0.0740979920  0.0000000000
H  -3.2900931550  -0.6445354200  0.8767358030
H  -3.2900931550  -0.6445354200  -0.8767358030
H  -3.4715090990  0.8955336430  0.0000000000
H  1.8483013950  -0.4197574840  2.0264630940
H  1.4952283330  1.1309614650  1.2257448730
H  3.1561667250  0.4711218590  1.2166961730
H  1.8483013950  -0.4197574840  -2.0264630940
H  1.4952283330  1.1309614650  -1.2257448730
H  3.1561667250  0.4711218590  -1.2166961730
C  2.0934605750  0.2188521740  1.1820210280
O  1.7989726130  -0.5165123280  0.0000000000
C  2.0934605750  0.2188521740  -1.1820210280