4
charge=0, multiplicity=1, basis=def2-QZVPPD, AUX_BASIS_CORR=rimp2-def2-QZVPPD, SCF_ALGORITHM=GDM, xc_grid=000099000590, mem_total=3750, num_basis=162, num_pairs=13492, num_threads=1
N  -2.0578226930  0.1363582850  0.0000000000
H  -2.5733610660  -0.7349908370  0.0000000000
H  -2.3468132290  0.6597919830  -0.8166791800
H  -2.3468132290  0.6597919830  0.8166791800