7
charge=0, multiplicity=1, basis=def2-QZVPPD, AUX_BASIS_CORR=rimp2-def2-QZVPPD, SCF_ALGORITHM=GDM, xc_grid=000099000590, mem_total=3750, num_basis=291, num_pairs=42988, num_threads=1
N  2.0897972220  -0.1143833080  -0.6915611250
H  1.2032251720  0.2511706440  -1.0143698940
H  2.8131891580  0.2495694040  -1.2965756230
C  2.3203995860  0.2769445120  0.6984850130
H  3.2465073550  -0.1724817540  1.0563031750
H  2.3850371440  1.3590117150  0.8686502880
H  1.5079762490  -0.1074216590  1.3127660890