24
charge=0, multiplicity=1, basis=def2-QZVPPD, AUX_BASIS_CORR=rimp2-def2-QZVPPD, SCF_ALGORITHM=GDM, xc_grid=000099000590, mem_total=30000, num_basis=1134, num_pairs=461153, num_threads=8
C  2.1116179650  -1.6642665520  0.4993216420
H  1.0295114220  -1.5603830340  0.4781899920
H  2.4135302820  -2.4596322630  -0.1794019220
H  2.4262822350  -1.9533293750  1.5013994510
C  2.8441497090  -0.3947795290  0.1114212230
O  4.0594423160  -0.3679859220  -0.0209892610
N  2.0691560420  0.6985917760  -0.0681164080
H  1.0696554700  0.6394357710  0.0517533170
C  2.6492056320  1.9774438340  -0.4210447750
H  3.3575381660  2.3104919270  0.3376791230
H  1.8491578110  2.7077439190  -0.5087453460
H  3.1859067910  1.9171710900  -1.3679298490
H  -3.1683067460  -2.2072515840  0.4813949290
H  -3.1293158880  -1.8947565700  -1.2694934740
H  -2.0218641050  -3.0938693230  -0.5552708210
H  -3.0737759630  2.3348943090  -0.5064321010
H  -3.1038270440  2.0224928030  1.2403598030
H  -4.5585767590  1.6969151270  0.2553327320
O  -1.4820039720  -1.1863917190  -0.2029624090
C  -1.7782198960  0.0907382970  0.0196976860
O  -0.9253261860  0.9244511530  0.1870690110
O  -3.0936373290  0.3255829250  0.0353946050
C  -3.4747074060  1.6933293750  0.2735374840
C  -2.5322968900  -2.1503372010  -0.3980599550