15
charge=0, multiplicity=1, basis=def2-QZVPPD, AUX_BASIS_CORR=rimp2-def2-QZVPPD, SCF_ALGORITHM=GDM, xc_grid=000099000590, mem_total=7500, num_basis=681, num_pairs=197270, num_threads=2
N  -2.3162169680  0.0258658890  -0.6353925640
H  -1.5301634930  -0.6060127430  -0.7320902830
H  -3.0188103960  -0.2506369930  -1.3074807360
C  -2.8463165110  -0.0346981800  0.7255896420
H  -3.6687881630  0.6725643090  0.8311171870
H  -3.2066114400  -1.0220757330  1.0371100850
H  -2.0672012860  0.2661834910  1.4258921530
H  2.8039206610  -1.0680030610  0.3294292090
H  1.3938075590  1.9046398990  -0.8544838250
H  -0.2601371310  1.3799102590  -0.4250418940
H  0.9185084710  1.8521622840  0.8316897870
O  0.5971930700  -1.0450185780  -0.2179280580
C  1.2626523100  -0.0554707400  -0.0382924410
O  2.5740435860  -0.1295154490  0.2860261130
C  0.7851100790  1.3620322660  -0.1323680300