6
charge=0, multiplicity=1, basis=def2-QZVPPD, AUX_BASIS_CORR=rimp2-def2-QZVPPD, SCF_ALGORITHM=GDM, xc_grid=000099000590, mem_total=3750, num_basis=288, num_pairs=41921, num_threads=1
H  -2.0360713470  1.7159148800  -0.8861073630
H  -0.5199330770  1.3968716260  0.0000000000
H  -2.0360713470  1.7159148800  0.8861073630
C  -2.0761219610  -1.2817821260  0.0000000000
N  -1.8821240420  -0.1354128260  0.0000000000
C  -1.6017992890  1.2573982130  0.0000000000