4
charge=0, multiplicity=1, basis=def2-QZVPPD, AUX_BASIS_CORR=rimp2-def2-QZVPPD, SCF_ALGORITHM=GDM, xc_grid=000099000590, mem_total=3750, num_basis=192, num_pairs=18800, num_threads=1
C  3.2658925560  -0.5184865580  0.0000000000
H  2.2610275120  -0.8784996980  0.0000000000
C  4.3850722720  -0.0939432480  0.0000000000
H  5.3808503670  0.2725301870  0.0000000000