15
charge=0, multiplicity=1, basis=def2-QZVPPD, AUX_BASIS_CORR=rimp2-def2-QZVPPD, SCF_ALGORITHM=GDM, xc_grid=000099000590, mem_total=7500, num_basis=711, num_pairs=207799, num_threads=2
C  2.7980882790  -0.5191243470  0.0000000000
H  1.7773301170  -0.8315203150  0.0000000000
C  3.9367394050  -0.1500505450  0.0000000000
H  4.9486752570  0.1691193760  0.0000000000
H  0.4759228600  1.3757252540  0.8852859690
H  -0.2896962770  2.7232615780  0.0000000000
H  0.4759228600  1.3757252540  -0.8852859690
H  -3.3130284720  -0.5127280480  -0.8774540380
C  -1.3768488930  -0.3206748520  0.0000000000
O  -1.3777455400  1.0212683350  0.0000000000
C  -0.0883163860  1.6579336240  0.0000000000
C  -2.7756172610  -0.8691939020  0.0000000000
O  -0.3698455590  -0.9858327740  0.0000000000
H  -2.7412027550  -1.9528922880  0.0000000000
H  -3.3130284720  -0.5127280480  0.8774540380