3
charge=0, multiplicity=1, basis=def2-QZVPPD, AUX_BASIS_CORR=rimp2-def2-QZVPPD, SCF_ALGORITHM=GDM, xc_grid=000099000590, mem_total=3750, num_basis=132, num_pairs=9017, num_threads=1
O  2.6481133510  -0.0050620300  0.0512705930
H  1.8056840320  0.4760844050  -0.0346870350
H  3.3003031280  0.6569250410  0.2869033430