7
charge=0, multiplicity=1, basis=def2-QZVPPD, AUX_BASIS_CORR=rimp2-def2-QZVPPD, SCF_ALGORITHM=GDM, xc_grid=000099000590, mem_total=3750, num_basis=354, num_pairs=61512, num_threads=1
H  1.2592342400  -1.7210615660  0.3054199340
H  2.9481820900  -2.1663046890  -0.1183738150
H  2.6177322470  -1.2610357800  1.3869220960
C  2.3046518800  -1.4402573790  0.3620475630
O  2.5023304190  -0.2046833760  -0.4106305640
C  1.7636005470  0.7803982940  -0.0915808640
N  1.1179884060  1.7028933940  0.1689621250