7
charge=0, multiplicity=1, basis=def2-QZVPPD, AUX_BASIS_CORR=rimp2-def2-QZVPPD, SCF_ALGORITHM=GDM, xc_grid=000099000590, mem_total=3750, num_basis=291, num_pairs=42988, num_threads=1
N  1.4273390820  -0.5994609330  -0.3912104050
H  0.5247167990  -0.8141358610  0.0223758400
H  2.0048661260  -1.4252376660  -0.3094503340
C  2.0473083000  0.5316602020  0.2939679700
H  3.0095536280  0.7592686400  -0.1651467510
H  2.2142507130  0.3890806520  1.3693408670
H  1.4176093920  1.4132125980  0.1731109740