4
charge=0, multiplicity=1, basis=def2-QZVPPD, AUX_BASIS_CORR=rimp2-def2-QZVPPD, SCF_ALGORITHM=GDM, xc_grid=000099000590, mem_total=3750, num_basis=162, num_pairs=13492, num_threads=1
N  -2.3786161550  -0.1731034900  0.0000000000
H  -1.6078726740  0.4878484790  0.0000000000
H  -2.9482524560  0.0231927280  0.8132880880
H  -2.9482524560  0.0231927280  -0.8132880880