4
charge=0, multiplicity=1, basis=def2-QZVPPD, AUX_BASIS_CORR=rimp2-def2-QZVPPD, SCF_ALGORITHM=GDM, xc_grid=000099000590, mem_total=3750, num_basis=162, num_pairs=13492, num_threads=1
N  -2.3831310870  0.4091733450  0.0819055340
H  -2.0014954200  -0.5208880380  -0.0544190670
H  -3.0973448180  0.5472172870  -0.6222704530
H  -2.8509989830  0.4102920320  0.9797978240