13
charge=0, multiplicity=1, basis=def2-QZVPPD, AUX_BASIS_CORR=rimp2-def2-QZVPPD, SCF_ALGORITHM=GDM, xc_grid=000099000590, mem_total=3750, num_basis=582, num_pairs=149246, num_threads=1
N  2.8267172920  -0.0073115580  0.2291182210
H  2.0064289700  -0.5367348860  -0.0556691420
H  3.2789009340  -0.5237252490  0.9728734170
H  3.4686184400  0.0038372900  -0.5533636640
H  -2.6630377580  0.5255640510  0.5631851750
H  -2.4161107130  -1.1783816380  0.3882651370
H  -0.2942064810  1.6625001270  -1.2244667010
H  0.7059845660  1.4476590160  0.2054096490
H  -0.9579281090  2.0749485080  0.3626388180
O  -0.0520106850  -0.9975004990  -0.3492174100
C  -0.7746874740  -0.0547753080  -0.0712721960
N  -2.0605375100  -0.2402944960  0.3304668830
C  -0.3120961930  1.3806180220  -0.1714112580