4
charge=0, multiplicity=1, basis=def2-QZVPPD, AUX_BASIS_CORR=rimp2-def2-QZVPPD, SCF_ALGORITHM=GDM, xc_grid=000099000590, mem_total=3750, num_basis=162, num_pairs=13492, num_threads=1
N  -3.5951130020  -0.0744070350  0.0000000000
H  -2.7197333270  0.4433799290  0.0000000000
H  -4.1223844250  0.2156510980  0.8135794570
H  -4.1223844250  0.2156510980  -0.8135794570