14
charge=0, multiplicity=1, basis=def2-QZVPPD, AUX_BASIS_CORR=rimp2-def2-QZVPPD, SCF_ALGORITHM=GDM, xc_grid=000099000590, mem_total=7500, num_basis=675, num_pairs=199213, num_threads=2
O  -3.4759318690  -0.0000000630  -0.0878553490
H  -2.5019300680  -0.0000000500  -0.0215877740
H  -3.7899101790  0.0000011470  0.8182908050
H  1.9866891270  2.1469802220  -0.0261621150
H  -0.4964682680  2.0523020400  0.0377911710
C  2.1850677590  0.0000000070  -0.0293107920
C  1.4784840680  1.1942626430  -0.0109960020
C  0.0917164180  1.1436682380  0.0258245300
N  -0.5928180990  -0.0000000100  0.0452728450
C  0.0917163960  -1.1436682530  0.0258245630
C  1.4784840640  -1.1942626310  -0.0109959770
H  -0.4964682550  -2.0523020470  0.0377912280
H  1.9866891490  -2.1469802020  -0.0261620740
H  3.2654298420  -0.0000000060  -0.0586576490