12
charge=0, multiplicity=1, basis=def2-QZVPPD, AUX_BASIS_CORR=rimp2-def2-QZVPPD, SCF_ALGORITHM=GDM, xc_grid=000099000590, mem_total=3750, num_basis=522, num_pairs=118687, num_threads=1
O  1.3148209580  -0.4124579180  -0.4898204650
H  0.4508808250  0.0143710300  -0.3993200060
C  2.2169780940  0.1894830650  0.4185423230
H  3.1756115780  -0.3152134870  0.3122054780
H  1.8894489060  0.0848616020  1.4582554960
H  2.3663090900  1.2539075230  0.2098658110
O  -1.3175403290  0.6263000440  -0.1489764540
H  -1.7082567510  1.0379261770  -0.9229444240
C  -2.1421313870  -0.4605775130  0.2757910090
H  -1.6456052900  -0.9121707560  1.1298265070
H  -2.2475427850  -1.2152062060  -0.5054140340
H  -3.1295598080  -0.1124852780  0.5836462320