6
charge=0, multiplicity=1, basis=def2-QZVPPD, AUX_BASIS_CORR=rimp2-def2-QZVPPD, SCF_ALGORITHM=GDM, xc_grid=000099000590, mem_total=3750, num_basis=261, num_pairs=34660, num_threads=1
O  2.2711693420  0.6532761940  0.0000000000
H  1.3134804360  0.5334814380  0.0000000000
C  2.8761551210  -0.6243388180  0.0000000000
H  3.9548073640  -0.4762045340  0.0000000000
H  2.6114427960  -1.2081507240  -0.8880858080
H  2.6114427960  -1.2081507240  0.8880858080