14
charge=0, multiplicity=1, basis=def2-QZVPPD, AUX_BASIS_CORR=rimp2-def2-QZVPPD, SCF_ALGORITHM=GDM, xc_grid=000099000590, mem_total=7500, num_basis=672, num_pairs=208046, num_threads=2
H  0.1294452450  -0.8044071760  0.8761967830
H  -3.9502732140  -1.8771629940  0.1188148430
H  -1.6567675850  -2.4916346410  0.8349594170
H  -2.6286803920  2.1445366270  -0.5458613980
H  0.8321930700  1.3901110410  0.0843563860
H  -4.4161408320  0.4605552630  -0.5656440690
H  -0.2836315320  2.5841468760  -0.3148618700
C  -3.1637896360  -1.1371980370  0.1292119990
C  -1.8763258200  -1.4779251870  0.5287559570
C  -0.8633891720  -0.5314449000  0.5472455220
C  -1.1153941010  0.7900253640  0.1550716620
C  -2.4142197490  1.1274661700  -0.2438059480
C  -3.4212218970  0.1745283690  -0.2531264010
N  -0.1081858100  1.7436406250  0.2091105270