4
charge=0, multiplicity=1, basis=def2-QZVPPD, AUX_BASIS_CORR=rimp2-def2-QZVPPD, SCF_ALGORITHM=GDM, xc_grid=000099000590, mem_total=3750, num_basis=162, num_pairs=13492, num_threads=1
N  2.9425495620  -0.0098797130  0.0256929960
H  2.0862529200  -0.5555722820  -0.0074673590
H  3.4697189540  -0.3183364300  0.8327500880
H  3.4886660270  -0.2495404860  -0.7920674710