4
charge=0, multiplicity=1, basis=def2-QZVPPD, AUX_BASIS_CORR=rimp2-def2-QZVPPD, SCF_ALGORITHM=GDM, xc_grid=000099000590, mem_total=3750, num_basis=192, num_pairs=18800, num_threads=1
C  2.8032424170  -0.0029064700  0.0000000000
H  1.7382946520  0.1441418490  0.0000000000
C  3.9891177920  -0.1727495560  0.0000000000
H  5.0396141170  -0.3217484700  0.0000000000