10
charge=0, multiplicity=1, basis=def2-QZVPPD, AUX_BASIS_CORR=rimp2-def2-QZVPPD, SCF_ALGORITHM=GDM, xc_grid=000099000590, mem_total=3750, num_basis=480, num_pairs=113365, num_threads=1
H  -1.4753416100  1.5455148070  -1.5447975230
H  -3.6857906020  -0.0255716070  -1.5470306590
H  -3.5738578200  -1.4753647550  0.7417556000
H  -1.3037259660  -0.6980422560  2.0074274770
N  -1.0835943970  0.5864664350  0.3187718370
C  -1.8055711070  0.8239684390  -0.8198172670
C  -2.9166035190  0.0127048920  -0.7959537540
C  -2.8573105710  -0.7480291460  0.4028725840
C  -1.7124190400  -0.3730566630  1.0678255730
H  -0.1677797600  0.9748657870  0.5248583780