21
charge=0, multiplicity=1, basis=def2-QZVPPD, AUX_BASIS_CORR=rimp2-def2-QZVPPD, SCF_ALGORITHM=GDM, xc_grid=000099000590, mem_total=15000, num_basis=999, num_pairs=377659, num_threads=4
H  1.9217513940  0.2146164300  2.1295297100
H  4.3723924300  -0.5823037270  1.2871270900
H  4.3516584640  -0.3316488760  -1.4131013660
H  1.8897022860  0.6037308780  -2.0569600050
N  1.5700584160  0.5301036520  0.0501262760
C  2.3202093680  0.1593205740  1.1327358650
C  3.5550983980  -0.2405704520  0.6768023040
C  3.5442232720  -0.1092855920  -0.7379358960
C  2.3031181400  0.3659920520  -1.0936335930
H  0.5988582890  0.8112295610  0.0834489560
H  -3.7510783640  1.4707489280  -0.7925690540
H  -5.0453329410  0.5248561840  -0.0048028370
H  -3.7835805600  1.3259024700  0.9734221020
H  -0.1749884880  -1.5113610010  -0.1718047550
C  -1.9227739090  -0.2967571380  -0.0136514580
O  -3.2563169320  -0.4105313180  -0.0487088390
C  -4.0019650180  0.8160147080  0.0383216670
C  -1.2492562420  -1.6359940140  -0.0934578230
O  -1.3605014430  0.7714283620  0.0799844870
H  -1.6294763500  -2.1940538560  -0.9467933670
H  -1.4857781460  -2.2105293690  0.8016850850