3
charge=0, multiplicity=1, basis=def2-QZVPPD, AUX_BASIS_CORR=rimp2-def2-QZVPPD, SCF_ALGORITHM=GDM, xc_grid=000099000590, mem_total=3750, num_basis=132, num_pairs=9017, num_threads=1
O  -2.1640668260  0.6736285270  -0.0584414270
H  -1.9147518890  -0.2557990650  0.0264376080
H  -3.0435177560  0.6742443710  -0.4418556280