16
charge=0, multiplicity=1, basis=def2-QZVPPD, AUX_BASIS_CORR=rimp2-def2-QZVPPD, SCF_ALGORITHM=GDM, xc_grid=000099000590, mem_total=7500, num_basis=681, num_pairs=214559, num_threads=2
O  -2.4568562400  0.0000000000  0.0678392510
H  -1.4791855640  0.0000000000  0.1483105030
H  -2.7923922850  0.0000000000  0.9660179570
H  1.6608866510  0.0000000000  -1.6942559080
H  0.1269439580  0.8816116930  -1.8567776860
H  0.1269439580  -0.8816116930  -1.8567776860
H  0.4653743820  -2.0822308580  0.1958205210
H  2.0255397090  -1.2893083210  0.4947443950
H  0.7290303070  -1.2000877800  1.7022661260
H  2.0255397090  1.2893083210  0.4947443950
H  0.7290303070  1.2000877800  1.7022661260
C  0.5948431310  0.0000000000  -1.4229414800
N  0.3948972010  0.0000000000  0.0209286650
C  0.9373731630  -1.2044336800  0.6334312900
C  0.9373731630  1.2044336800  0.6334312900
H  0.4653743820  2.0822308580  0.1958205210