20
charge=0, multiplicity=1, basis=def2-QZVPPD, AUX_BASIS_CORR=rimp2-def2-QZVPPD, SCF_ALGORITHM=GDM, xc_grid=000099000590, mem_total=15000, num_basis=975, num_pairs=377569, num_threads=4
C  -2.0967379830  0.0096074170  -0.1887140700
O  -1.1648625140  -0.1019569830  -0.9555872640
O  -1.9651091780  0.3798517520  1.0860668770
H  -1.0127232680  0.5345436060  1.2847681250
C  -3.5315829040  -0.2525747070  -0.5554281580
H  -3.6012197720  -0.5294746960  -1.6015123750
H  -3.9285853340  -1.0517068790  0.0694029080
H  -4.1307920130  0.6359068470  -0.3615052730
H  2.7670154810  -1.8972739290  -0.6632014740
H  1.1106803790  -1.8718911580  -1.3240715450
H  1.5687082940  -3.0925542750  -0.1065348810
H  0.7309027990  2.1237946310  -1.0616405360
H  2.1463757200  2.4855436120  -0.0440781690
H  2.3713519240  2.0526342490  -1.7635836030
O  1.2781840430  -1.2484621590  0.6498036680
C  1.2618879370  0.0675182400  0.5054276800
O  0.7287142470  0.7907573580  1.3186797420
O  1.9042316200  0.4878054010  -0.5791521730
C  1.7750086410  1.8895240200  -0.8729586150
C  1.7168650070  -2.0731228120  -0.4452605330