12
charge=0, multiplicity=1, basis=def2-QZVPPD, AUX_BASIS_CORR=rimp2-def2-QZVPPD, SCF_ALGORITHM=GDM, xc_grid=000099000590, mem_total=3750, num_basis=549, num_pairs=141176, num_threads=1
C  0.4779970520  1.8239713270  0.0000021350
H  0.8930816000  2.3164215810  -0.8776689780
H  -0.6039232730  1.9402294700  -0.0000066750
H  0.8930682410  2.3164146330  0.8776838180
C  0.9226173230  0.3740070270  -0.0000005650
O  2.1056530510  0.0668902410  -0.0000026360
N  -0.0704963320  -0.5435887710  0.0000011590
H  -1.0394203170  -0.2462411210  0.0000043880
C  0.2277216460  -1.9604146040  0.0000013610
H  0.8078323830  -2.2410138210  0.8791887610
H  0.8078355720  -2.2410128200  -0.8791842150
H  -0.7084026780  -2.5136942290  -0.0000008000