10
charge=0, multiplicity=1, basis=def2-QZVPPD, AUX_BASIS_CORR=rimp2-def2-QZVPPD, SCF_ALGORITHM=GDM, xc_grid=000099000590, mem_total=3750, num_basis=480, num_pairs=113324, num_threads=1
H  0.9782747640  2.1017818610  -0.2040610620
H  3.5196004760  1.3560750810  0.3705803630
H  3.5196004760  -1.3560750810  0.3705803630
H  0.9782747640  -2.1017818610  -0.2040610620
N  0.6271130750  0.0000000000  -0.2843603060
C  1.3975499850  1.1164351830  -0.1080700330
C  2.6801085390  0.7102614700  0.1818646030
C  2.6801085390  -0.7102614700  0.1818646030
C  1.3975499850  -1.1164351830  -0.1080700330
H  -0.3730534770  0.0000000000  -0.4890807360