4
charge=0, multiplicity=1, basis=def2-QZVPPD, AUX_BASIS_CORR=rimp2-def2-QZVPPD, SCF_ALGORITHM=GDM, xc_grid=000099000590, mem_total=3750, num_basis=192, num_pairs=18800, num_threads=1
C  -2.9422576510  -0.4715232770  -0.0014677120
H  -1.9029807750  -0.7230944870  -0.0694497180
C  -4.0983706640  -0.1690205710  0.0768218650
H  -5.1247492700  0.0908232360  0.1453231150