8
charge=0, multiplicity=1, basis=def2-QZVPPD, AUX_BASIS_CORR=rimp2-def2-QZVPPD, SCF_ALGORITHM=GDM, xc_grid=000099000590, mem_total=3750, num_basis=390, num_pairs=75103, num_threads=1
C  -2.4411988900  0.0332545330  -0.1249212110
O  -1.9315730440  -0.9501443850  -0.6132350760
O  -1.7480986190  1.0222110600  0.4418888450
H  -0.7798061850  0.8388270190  0.3824715850
C  -3.9239885760  0.2876881860  -0.0841498400
H  -4.4543637310  -0.5476139160  -0.5277129710
H  -4.2463591370  0.4329032410  0.9459667830
H  -4.1532502050  1.2044693980  -0.6260437960