12
charge=0, multiplicity=1, basis=def2-QZVPPD, AUX_BASIS_CORR=rimp2-def2-QZVPPD, SCF_ALGORITHM=GDM, xc_grid=000099000590, mem_total=3750, num_basis=552, num_pairs=135120, num_threads=1
C  -0.7004241670  -0.0884250710  0.0000000000
O  -0.2004172420  -1.1934763590  0.0000000000
O  0.0066973080  1.0421483360  0.0000000000
H  0.9811576330  0.8138146380  0.0000000000
C  -2.1840858320  0.1645876780  0.0000000000
H  -2.7204056600  -0.7779368260  0.0000000000
H  -2.4572366110  0.7503527230  -0.8767946390
H  -2.4572366110  0.7503527230  0.8767946390
N  2.5660010620  0.0431510080  0.0000000000
H  3.1565789720  0.1160919600  0.8182514110
H  3.1565789720  0.1160919600  -0.8182514110
H  2.1294368890  -0.8738861590  0.0000000000