10
charge=0, multiplicity=1, basis=def2-QZVPPD, AUX_BASIS_CORR=rimp2-def2-QZVPPD, SCF_ALGORITHM=GDM, xc_grid=000099000590, mem_total=3750, num_basis=420, num_pairs=87534, num_threads=1
H  3.3249467520  1.3218149580  0.0197347460
H  2.0320488220  1.2263051960  -1.1808030760
H  1.7673601460  2.0704258210  0.3585367250
H  0.7854712710  -0.0416919230  0.5549507380
H  1.9077695120  -2.0891435030  0.4287806340
H  3.4127279450  -1.2492536170  0.0665703600
H  2.1193830400  -1.2813060090  -1.1376140970
C  2.2458215900  1.2049891190  -0.0986782810
N  1.8008397760  -0.0078114660  0.5604055620
C  2.3286054590  -1.2095236460  -0.0570926920