4
charge=0, multiplicity=1, basis=def2-QZVPPD, AUX_BASIS_CORR=rimp2-def2-QZVPPD, SCF_ALGORITHM=GDM, xc_grid=000099000590, mem_total=3750, num_basis=162, num_pairs=13492, num_threads=1
N  -3.3127997910  0.0000000000  -0.0005108530
H  -3.6867528870  0.8147140970  0.4703637750
H  -3.6841667750  0.0000000030  -0.9424990680
H  -3.6867529050  -0.8147140870  0.4703637790