4
charge=0, multiplicity=1, basis=def2-QZVPPD, AUX_BASIS_CORR=rimp2-def2-QZVPPD, SCF_ALGORITHM=GDM, xc_grid=000099000590, mem_total=3750, num_basis=162, num_pairs=13492, num_threads=1
N  2.5847626680  0.2240208530  0.0239544260
H  1.5809664360  0.3947286660  -0.0061895340
H  3.0514104570  1.0811160580  -0.2442265640
H  2.8365077970  0.0413603920  0.9871044300