15
charge=0, multiplicity=1, basis=def2-QZVPPD, AUX_BASIS_CORR=rimp2-def2-QZVPPD, SCF_ALGORITHM=GDM, xc_grid=000099000590, mem_total=7500, num_basis=744, num_pairs=226359, num_threads=2
C  -1.7778982050  -0.1876140330  -0.0144134070
O  -0.8311642520  -0.9421306870  -0.0686330750
O  -1.6657552970  1.1360260850  0.1006528690
H  -0.7167694990  1.3931902770  0.1293546930
C  -3.2149189880  -0.6274093290  -0.0704248660
H  -3.7397115710  -0.2868731660  0.8210211080
H  -3.7048201320  -0.1682340200  -0.9281187210
H  -3.2685595190  -1.7077051590  -0.1463282180
H  1.2592342400  -1.7210615660  0.3054199340
H  2.9481820900  -2.1663046890  -0.1183738150
H  2.6177322470  -1.2610357800  1.3869220960
C  2.3046518800  -1.4402573790  0.3620475630
O  2.5023304190  -0.2046833760  -0.4106305640
C  1.7636005470  0.7803982940  -0.0915808640
N  1.1179884060  1.7028933940  0.1689621250