14
charge=0, multiplicity=1, basis=def2-QZVPPD, AUX_BASIS_CORR=rimp2-def2-QZVPPD, SCF_ALGORITHM=GDM, xc_grid=000099000590, mem_total=7500, num_basis=678, num_pairs=191718, num_threads=2
C  -1.4447642640  -0.1383921970  0.0000000000
O  -0.6197583510  -1.0228256000  0.0000000000
O  -1.1377147230  1.1640960640  0.0000000000
H  -0.1655951320  1.2773436580  0.0000000000
C  -2.9320983070  -0.3594406560  0.0000000000
H  -3.1466331630  -1.4222529680  0.0000000000
H  -3.3740531350  0.1118665630  -0.8768192950
H  -3.3740531350  0.1118665630  0.8768192950
H  1.7378523290  -1.7610504030  0.0000000000
H  3.2201866050  -1.3316851560  -0.8867750020
H  3.2201866050  -1.3316851560  0.8867750020
C  2.6234409950  -1.1270364150  0.0000000000
C  2.1780829940  0.2517599060  0.0000000000
N  1.7787926940  1.3287790660  0.0000000000