20
charge=0, multiplicity=1, basis=def2-QZVPPD, AUX_BASIS_CORR=rimp2-def2-QZVPPD, SCF_ALGORITHM=GDM, xc_grid=000099000590, mem_total=15000, num_basis=840, num_pairs=301988, num_threads=4
H  -3.2502833830  -0.9133036730  0.1296611310
H  -1.8333951150  -1.4806379860  -0.7617713050
H  -1.9596294860  -1.7500699760  0.9877748050
H  -0.5524845730  0.0913886980  0.6891402180
H  -1.1492614090  2.1179431640  -0.3193582530
H  -2.7434382370  1.4686465570  -0.6908777020
H  -1.3289973930  0.8520939510  -1.5512133210
C  -2.1670810560  -1.0367141410  0.1910763960
N  -1.5386648900  0.2346292090  0.4945999820
C  -1.6902961860  1.2064343850  -0.5707104550
H  0.8878914330  -0.7542154270  -1.4263287250
H  2.5394605800  -1.3134570520  -1.1322653840
H  1.1622944190  -2.1263098300  -0.3592775290
H  2.0860402390  -0.6840280010  1.2433053000
H  2.2136662560  1.6535840260  1.0605910800
H  1.5465814350  1.5528203530  -0.5660070050
H  3.1878961590  0.9729432940  -0.2595419950
C  1.5564715300  -1.1591373820  -0.6658946030
N  1.5883610060  -0.2554093510  0.4754063580
C  2.1752824050  1.0398843070  0.1624006230