20
charge=0, multiplicity=1, basis=def2-QZVPPD, AUX_BASIS_CORR=rimp2-def2-QZVPPD, SCF_ALGORITHM=GDM, xc_grid=000099000590, mem_total=15000, num_basis=993, num_pairs=382256, num_threads=4
H  -2.4436344850  -2.2558981450  -0.4452368210
H  -4.2707897340  1.5922315350  0.1009107730
H  -4.4582480140  -0.8147671410  -0.4571775790
H  -0.0560809720  1.0921276030  0.7115302850
H  0.7638928940  -1.0106820220  0.2333927580
H  -2.0562279880  2.5361664200  0.6830372720
C  -3.3939283760  0.9617376280  0.1065063280
C  -3.4962067650  -0.3903130310  -0.2059701030
C  -2.3749658780  -1.2056865930  -0.2018083420
C  -1.1289570350  -0.6707266180  0.1208818500
C  -1.0196202890  0.6822699190  0.4422792950
C  -2.1509076090  1.4891313740  0.4304678800
O  -0.0596342310  -1.5093784270  0.1096496520
H  2.5522728370  1.7131905230  -1.5333173670
H  2.7402114500  0.0986737550  -2.2646771650
H  1.1391772620  0.6680367340  -1.7605349510
C  2.1966976210  0.6827954150  -1.5219383420
N  2.3299891020  0.0884567730  -0.1786477420
N  3.4644076940  0.0592482700  0.2913750120
N  4.4598226070  -0.0124658080  0.8139102290