10
charge=0, multiplicity=1, basis=def2-QZVPPD, AUX_BASIS_CORR=rimp2-def2-QZVPPD, SCF_ALGORITHM=GDM, xc_grid=000099000590, mem_total=3750, num_basis=480, num_pairs=113324, num_threads=1
H  1.7275307270  -0.1528951020  -2.1008979030
H  4.2954285270  0.2986710550  -1.3563178040
H  4.2954285270  0.2986710550  1.3563178040
H  1.7275307270  -0.1528951020  2.1008979030
N  1.3746969930  -0.2166786110  0.0000000000
C  2.1523183980  -0.0777838020  -1.1160497830
C  3.4478658670  0.1506111410  -0.7103112610
C  3.4478658670  0.1506111410  0.7103112610
C  2.1523183980  -0.0777838020  1.1160497830
H  0.3646972230  -0.3732826810  0.0000000000