20
charge=0, multiplicity=1, basis=def2-QZVPPD, AUX_BASIS_CORR=rimp2-def2-QZVPPD, SCF_ALGORITHM=GDM, xc_grid=000099000590, mem_total=15000, num_basis=876, num_pairs=316051, num_threads=4
H  -3.7723794350  0.3605125760  0.4627732680
H  -3.1379083670  -1.2860512020  0.5541149170
H  -2.8308582660  -0.1317926980  1.8674781980
H  -0.8898031670  -0.1785601890  0.5446780600
H  -0.7452323880  0.3961660460  -1.6963965230
H  -2.4823928190  0.7068015860  -1.7421636760
H  -1.8939425210  -0.9539932640  -1.6080334970
C  -2.9151743530  -0.2326059510  0.7862810650
N  -1.7086815740  0.2634162870  0.1494311630
C  -1.7064828440  0.0847425260  -1.2923095250
H  2.7184344550  -1.8038187090  -0.3193888290
H  1.3617184710  -2.5373691610  0.5775475960
H  1.0858227880  -1.8503268720  -1.0454789900
H  1.7719653010  2.5019455210  -0.3899736050
H  2.0838777830  1.7842861970  1.2121448670
H  0.4133723060  1.8408453080  0.5582255870
C  1.6480297690  -1.7479998250  -0.1154277670
O  1.3202233890  -0.5463824340  0.5483515600
O  1.7026938140  0.5155605830  -0.3822244150
C  1.4696087180  1.7263497570  0.3118680140