11
charge=0, multiplicity=1, basis=def2-QZVPPD, AUX_BASIS_CORR=rimp2-def2-QZVPPD, SCF_ALGORITHM=GDM, xc_grid=000099000590, mem_total=3750, num_basis=519, num_pairs=126296, num_threads=1
H  -1.0113955850  1.3420086410  -0.8844724040
H  -0.2834755440  2.7116941420  0.0000000000
H  -1.0113955850  1.3420086410  0.8844724040
H  2.8493824430  -0.4108930820  -0.8774299920
C  0.9082343710  -0.2922046610  0.0000000000
O  0.8554194470  1.0430578330  0.0000000000
C  -0.4561137200  1.6416025560  0.0000000000
C  2.3262395520  -0.7879805520  0.0000000000
O  -0.0688652590  -1.0056081470  0.0000000000
H  2.8493824430  -0.4108930820  0.8774299920
H  2.3335559930  -1.8721679840  0.0000000000