18
charge=0, multiplicity=1, basis=def2-QZVPPD, AUX_BASIS_CORR=rimp2-def2-QZVPPD, SCF_ALGORITHM=GDM, xc_grid=000099000590, mem_total=15000, num_basis=846, num_pairs=279287, num_threads=4
C  -2.1035554150  0.0584755860  -0.0434850580
O  -1.8837517320  -1.1062528380  -0.2787896240
O  -1.1367392360  0.9663178740  0.1437159460
H  -0.2632272620  0.5244746180  0.0496419500
C  -3.4752112710  0.6640972520  0.0755193360
H  -4.2295917860  -0.1002346510  -0.0740448080
H  -3.5931564740  1.1196379440  1.0578049620
H  -3.5933973920  1.4553999980  -0.6636398300
H  2.2536054540  -2.1392103080  -0.1388300120
H  0.4626386030  -2.1069776530  -0.2823028040
H  1.2343452690  -1.7503353650  1.2801567000
H  3.9550376480  1.4989922100  0.1428462490
H  3.6651144770  0.2182520910  -1.0653658560
H  2.6488518220  1.6895896700  -1.0542976930
C  1.3320434860  -1.6652400820  0.1985890290
O  1.3000804680  -0.2994006930  -0.1988244590
O  2.3496784410  0.3883671240  0.5354665260
C  3.1953024510  0.9761894580  -0.4363567580