15
charge=0, multiplicity=1, basis=def2-QZVPPD, AUX_BASIS_CORR=rimp2-def2-QZVPPD, SCF_ALGORITHM=GDM, xc_grid=000099000590, mem_total=7500, num_basis=681, num_pairs=197399, num_threads=2
C  1.1763137690  0.0881212900  0.0302004390
O  0.6729483220  1.1762408150  0.2174876400
O  0.4966479720  -1.0558161570  0.0810867220
H  -0.4675387630  -0.8481895720  0.2982630180
C  2.6337693530  -0.1211335040  -0.2853166370
H  3.1459862700  0.8340744980  -0.3225190110
H  3.0861593700  -0.7581596490  0.4737399710
H  2.7337500150  -0.6366767550  -1.2396445150
N  -2.0144814160  -0.1776156400  0.5887069960
H  -1.6483682830  0.6672168010  1.0123768730
H  -2.6659063890  -0.6000225000  1.2368608950
C  -2.6615611100  0.1388544650  -0.6909953710
H  -2.9985850460  -0.7818744960  -1.1635356300
H  -3.5157145030  0.8137779610  -0.5978383230
H  -1.9270547720  0.6053021630  -1.3440455750