17
charge=0, multiplicity=1, basis=def2-QZVPPD, AUX_BASIS_CORR=rimp2-def2-QZVPPD, SCF_ALGORITHM=GDM, xc_grid=000099000590, mem_total=7500, num_basis=771, num_pairs=245562, num_threads=2
H  0.0880507120  1.8498546730  0.0000000000
H  2.7972892050  1.8007257970  0.0000000000
H  3.4958449780  -0.8202036740  0.0000000000
H  1.1710616840  -2.2120010870  0.0000000000
N  0.2812928040  -0.2743156940  0.0000000000
C  0.7572928880  1.0084893950  0.0000000000
C  2.1323912610  0.9549330280  0.0000000000
C  2.4981699840  -0.4176412540  0.0000000000
C  1.3323721040  -1.1490697020  0.0000000000
H  -0.7049083500  -0.5310220990  0.0000000000
N  -2.6868236540  -0.7096678880  0.0000000000
H  -3.0298657960  -1.2054708790  -0.8124323690
H  -3.0298657960  -1.2054708790  0.8124323690
C  -3.1599714020  0.6800823760  0.0000000000
H  -2.7676529670  1.1899928250  0.8782295900
H  -4.2483793840  0.7862661400  0.0000000000
H  -2.7676529670  1.1899928250  -0.8782295900