24
charge=0, multiplicity=1, basis=def2-QZVPPD, AUX_BASIS_CORR=rimp2-def2-QZVPPD, SCF_ALGORITHM=GDM, xc_grid=000099000590, mem_total=30000, num_basis=1125, num_pairs=524240, num_threads=8
H  -0.0912811200  0.0089180500  1.9141922610
H  2.7721528370  2.3923049150  -0.2076225050
H  1.0614747680  2.1549810710  1.5727470580
H  2.1574167240  -1.7059360610  -1.2971329110
H  -0.6842940080  -2.1100834100  0.8120838310
H  3.3208116440  0.4324744020  -1.6248591210
H  0.3769226970  -2.8676258110  -0.2250388280
C  2.2647986400  1.4507225890  -0.0585807100
C  1.3030018550  1.3140676010  0.9369118400
C  0.6498250690  0.1075454180  1.1338795950
C  0.9380109680  -0.9980767800  0.3237305740
C  1.9183378030  -0.8601767790  -0.6654874190
C  2.5709635350  0.3491980660  -0.8503154470
N  0.2793426470  -2.2038530760  0.5252236270
H  -2.2418151770  0.6633528090  -2.3558442660
H  -1.5380544480  -0.9232679180  -1.9486800440
H  -0.6447442640  0.5780055700  -1.6268738560
H  -2.8653698100  1.5356542430  1.2909711390
H  -3.2742270810  2.0648809730  -0.3569681360
C  -1.6312228990  0.1127849240  -1.6387980420
C  -2.2368863740  0.1963570700  -0.2601438130
O  -2.4864236640  -0.7931317830  0.3944379550
C  -2.5163582600  1.5835509130  0.2640383250
H  -1.6149849180  2.1931859250  0.2020597850