10
charge=0, multiplicity=1, basis=def2-QZVPPD, AUX_BASIS_CORR=rimp2-def2-QZVPPD, SCF_ALGORITHM=GDM, xc_grid=000099000590, mem_total=3750, num_basis=480, num_pairs=113390, num_threads=1
H  1.7235405000  0.4392206560  -2.1007949840
H  4.1838961560  -0.4258037920  -1.3562447320
H  4.1838961560  -0.4258037920  1.3562447320
H  1.7235405000  0.4392206560  2.1007949840
N  1.3879950650  0.5596718480  0.0000000000
C  2.1295463980  0.2911175640  -1.1164414760
C  3.3702152550  -0.1463932700  -0.7102460350
C  3.3702152550  -0.1463932700  0.7102460350
C  2.1295463980  0.2911175640  1.1164414760
H  0.4089150150  0.8244695840  0.0000000000