4
charge=0, multiplicity=1, basis=def2-QZVPPD, AUX_BASIS_CORR=rimp2-def2-QZVPPD, SCF_ALGORITHM=GDM, xc_grid=000099000590, mem_total=3750, num_basis=208, num_pairs=22058, num_threads=1
F  0.0675676857  -2.5431424711  0.0000000000
P  -0.1093591902  -0.9221647532  0.0000000000
H  0.8284196905  -0.6334291993  1.0277115524
H  0.8284196905  -0.6334291993  -1.0277115524