3
charge=0, multiplicity=1, basis=def2-QZVPPD, AUX_BASIS_CORR=rimp2-def2-QZVPPD, SCF_ALGORITHM=GDM, xc_grid=000099000590, mem_total=3750, num_basis=145, num_pairs=10840, num_threads=1
S  0.0837908707  2.3136069817  0.0000000000
H  -0.8448469251  2.3741277780  -0.9675630298
H  -0.8448469251  2.3741277780  0.9675630298