6
charge=0, multiplicity=1, basis=def2-QZVPPD, AUX_BASIS_CORR=rimp2-def2-QZVPPD, SCF_ALGORITHM=GDM, xc_grid=000099000590, mem_total=3750, num_basis=366, num_pairs=59840, num_threads=1
P  1.8484380084  0.2517858487  0.0000000000
F  3.2683265528  -0.5364800921  0.0000000000
H  1.2137759499  -0.5025695125  -1.0253077094
H  1.2137759499  -0.5025695125  1.0253077094
Cl  -1.3392583861  0.9751154591  0.0000000000
Cl  -2.1436300346  -0.8776997829  0.0000000000