4
charge=0, multiplicity=1, basis=def2-QZVPPD, AUX_BASIS_CORR=rimp2-def2-QZVPPD, SCF_ALGORITHM=GDM, xc_grid=000099000590, mem_total=3750, num_basis=211, num_pairs=22704, num_threads=1
S  1.6186369244  0.1341259594  0.0000000000
O  3.0721601398  -0.2343827954  0.0000000000
H  1.3959092881  1.0964731043  -0.9581005008
H  1.3959092881  1.0964731043  0.9581005008