8
charge=0, multiplicity=1, basis=def2-QZVPPD, AUX_BASIS_CORR=rimp2-def2-QZVPPD, SCF_ALGORITHM=GDM, xc_grid=000099000590, mem_total=3750, num_basis=403, num_pairs=72785, num_threads=1
F  -2.5122637008  0.2637784532  0.0000000000
P  -0.9411593227  -0.1891393684  0.0000000000
H  -0.5083785794  0.6814839860  -1.0318716114
H  -0.5083785794  0.6814839860  1.0318716114
N  1.6480647697  -0.5137996525  0.0000000000
F  2.6850936561  0.4656950364  0.0000000000
H  1.8924376465  -1.0812057280  0.8131702163
H  1.8924376465  -1.0812057280  -0.8131702163