3
charge=0, multiplicity=1, basis=def2-QZVPPD, AUX_BASIS_CORR=rimp2-def2-QZVPPD, SCF_ALGORITHM=GDM, xc_grid=000099000590, mem_total=3750, num_basis=145, num_pairs=10840, num_threads=1
S  2.2063942267  0.0781716732  0.0000000000
H  2.2978257850  -0.8441341648  0.9708676411
H  2.2978257850  -0.8441341648  -0.9708676411