3
charge=0, multiplicity=1, basis=def2-QZVPPD, AUX_BASIS_CORR=rimp2-def2-QZVPPD, SCF_ALGORITHM=GDM, xc_grid=000099000590, mem_total=3750, num_basis=165, num_pairs=14005, num_threads=1
O  -1.7272190291  0.6391918274  -0.0982946567
F  -2.5862447623  -0.5128747518  -0.0099851229
H  -1.9407443114  1.0381253231  0.7614142454