4
charge=0, multiplicity=1, basis=def2-QZVPPD, AUX_BASIS_CORR=rimp2-def2-QZVPPD, SCF_ALGORITHM=GDM, xc_grid=000099000590, mem_total=3750, num_basis=175, num_pairs=15705, num_threads=1
P  0.0347105753  2.2360244488  0.0000000000
H  0.9246480228  3.3395445858  0.0000000000
H  -0.7805012203  2.7443074815  -1.0411471456
H  -0.7805012203  2.7443074815  1.0411471456