6
charge=0, multiplicity=1, basis=def2-QZVPPD, AUX_BASIS_CORR=rimp2-def2-QZVPPD, SCF_ALGORITHM=GDM, xc_grid=000099000590, mem_total=3750, num_basis=389, num_pairs=65981, num_threads=1
F  0.2494313898  -3.1512356921  0.0000000000
S  -0.1648660718  -1.5537183774  0.0000000000
H  1.0992751722  -1.1003090907  0.0000000000
S  -0.4884877100  1.2676697486  0.0000000000
F  0.3958858535  1.8454954224  -1.2036593675
F  0.3958858535  1.8454954224  1.2036593675