4
charge=0, multiplicity=1, basis=def2-QZVPPD, AUX_BASIS_CORR=rimp2-def2-QZVPPD, SCF_ALGORITHM=GDM, xc_grid=000099000590, mem_total=3750, num_basis=208, num_pairs=22058, num_threads=1
F  -3.0230095641  0.0694239520  0.0000000000
P  -1.4102114011  -0.0640756266  0.0000000000
H  -1.2858735249  -1.0337801181  1.0305358565
H  -1.2858735249  -1.0337801181  -1.0305358565