3
charge=0, multiplicity=1, basis=def2-QZVPPD, AUX_BASIS_CORR=rimp2-def2-QZVPPD, SCF_ALGORITHM=GDM, xc_grid=000099000590, mem_total=3750, num_basis=178, num_pairs=16224, num_threads=1
F  -2.8559494433  -0.0985270500  0.0754556872
S  -1.2111583848  0.1748586851  -0.1017654346
H  -1.0732041780  0.6995922412  1.1238636201