7
charge=0, multiplicity=1, basis=def2-QZVPPD, AUX_BASIS_CORR=rimp2-def2-QZVPPD, SCF_ALGORITHM=GDM, xc_grid=000099000590, mem_total=3750, num_basis=353, num_pairs=56297, num_threads=1
F  0.1179579568  -2.5478170875  0.0000000000
P  -0.1538827856  -0.9408588595  0.0000000000
H  0.7686175786  -0.6002143338  1.0258875487
H  0.7686175786  -0.6002143338  -1.0258875487
S  0.0837908707  2.3136069817  0.0000000000
H  -0.8448469251  2.3741277780  -0.9675630298
H  -0.8448469251  2.3741277780  0.9675630298