4
charge=0, multiplicity=1, basis=def2-QZVPPD, AUX_BASIS_CORR=rimp2-def2-QZVPPD, SCF_ALGORITHM=GDM, xc_grid=000099000590, mem_total=3750, num_basis=227, num_pairs=26160, num_threads=1
As  0.9775244166  -0.0963750457  -0.0017744534
F  2.7061554084  0.2336636875  0.0392525532
H  0.9803577943  -0.8518123204  -1.3257216503
H  1.0328544808  -1.3702408147  0.8346743269