3
charge=0, multiplicity=1, basis=def2-QZVPPD, AUX_BASIS_CORR=rimp2-def2-QZVPPD, SCF_ALGORITHM=GDM, xc_grid=000099000590, mem_total=3750, num_basis=178, num_pairs=16224, num_threads=1
S  0.8272092790  0.0853502111  0.0000000000
F  2.4777708050  -0.0555707511  0.0000000000
H  0.5931348527  -1.2358404682  0.0000000000