7
charge=0, multiplicity=1, basis=def2-QZVPPD, AUX_BASIS_CORR=rimp2-def2-QZVPPD, SCF_ALGORITHM=GDM, xc_grid=000099000590, mem_total=3750, num_basis=419, num_pairs=76043, num_threads=1
F  0.0777790603  -3.2121515254  0.0000000000
S  -0.0476159758  -1.5519655994  0.0000000000
H  1.2755037907  -1.3383710126  0.0000000000
P  -0.1777516033  1.0684502142  0.0000000000
H  -1.5847924558  1.2470775414  0.0000000000
F  0.1542773896  2.0434188088  -1.2086207626
F  0.1542773896  2.0434188088  1.2086207626