4
charge=0, multiplicity=1, basis=def2-QZVPPD, AUX_BASIS_CORR=rimp2-def2-QZVPPD, SCF_ALGORITHM=GDM, xc_grid=000099000590, mem_total=3750, num_basis=208, num_pairs=22058, num_threads=1
F  -3.4490335531  0.2503445581  0.0000000000
P  -1.8924372540  -0.1863781947  0.0000000000
H  -1.9421235502  -1.1507432951  1.0385243392
H  -1.9421235502  -1.1507432951  -1.0385243392