4
charge=0, multiplicity=1, basis=def2-QZVPPD, AUX_BASIS_CORR=rimp2-def2-QZVPPD, SCF_ALGORITHM=GDM, xc_grid=000099000590, mem_total=3750, num_basis=227, num_pairs=26153, num_threads=1
As  0.9871856704  0.0314851842  0.0000000000
F  2.7537182171  -0.0623508990  0.0000000000
H  0.8825438130  1.0725225325  1.1093651894
H  0.8825438130  1.0725225325  -1.1093651894