4
charge=0, multiplicity=1, basis=def2-QZVPPD, AUX_BASIS_CORR=rimp2-def2-QZVPPD, SCF_ALGORITHM=GDM, xc_grid=000099000590, mem_total=3750, num_basis=208, num_pairs=22058, num_threads=1
P  -1.3295018344  0.0690897806  -0.1434319900
F  -2.9205207804  -0.1556261698  0.1160431178
H  -0.8650241370  -0.4627226282  1.0904944309
H  -1.2537925868  1.4073853970  0.3325945854