3
charge=0, multiplicity=1, basis=def2-QZVPPD, AUX_BASIS_CORR=rimp2-def2-QZVPPD, SCF_ALGORITHM=GDM, xc_grid=000099000590, mem_total=3750, num_basis=197, num_pairs=19734, num_threads=1
Se  0.8431271086  -0.0719348513  0.0608041106
F  2.6217492152  0.0187744958  -0.1221310230
H  0.6229140486  0.0026737776  -1.3905173602