4
charge=0, multiplicity=1, basis=def2-QZVPPD, AUX_BASIS_CORR=rimp2-def2-QZVPPD, SCF_ALGORITHM=GDM, xc_grid=000099000590, mem_total=3750, num_basis=208, num_pairs=22058, num_threads=1
F  -0.0766760205  -3.1896026382  0.0000000000
P  -0.0347465902  -1.5632400179  0.0000000000
H  0.9372379381  -1.4053209734  1.0271057286
H  0.9372379381  -1.4053209734  -1.0271057286