4
charge=0, multiplicity=1, basis=def2-QZVPPD, AUX_BASIS_CORR=rimp2-def2-QZVPPD, SCF_ALGORITHM=GDM, xc_grid=000099000590, mem_total=3750, num_basis=208, num_pairs=22063, num_threads=1
F  0.0983280468  -1.8588742407  0.0000000000
P  -0.1408947380  -0.2324924187  0.0000000000
H  0.7869526222  0.0611501133  1.0315002990
H  0.7869526222  0.0611501133  -1.0315002990