4
charge=0, multiplicity=1, basis=def2-QZVPPD, AUX_BASIS_CORR=rimp2-def2-QZVPPD, SCF_ALGORITHM=GDM, xc_grid=000099000590, mem_total=3750, num_basis=175, num_pairs=15705, num_threads=1
P  -2.1164233468  -0.0283576082  0.0000000000
H  -2.5420514765  1.3211577632  0.0000000000
H  -2.9784546851  -0.4369362309  -1.0464453124
H  -2.9784546851  -0.4369362309  1.0464453124