4
charge=0, multiplicity=1, basis=def2-QZVPPD, AUX_BASIS_CORR=rimp2-def2-QZVPPD, SCF_ALGORITHM=GDM, xc_grid=000099000590, mem_total=3750, num_basis=208, num_pairs=22058, num_threads=1
F  0.1179579568  -2.5478170875  0.0000000000
P  -0.1538827856  -0.9408588595  0.0000000000
H  0.7686175786  -0.6002143338  1.0258875487
H  0.7686175786  -0.6002143338  -1.0258875487