4
charge=0, multiplicity=1, basis=def2-QZVPPD, AUX_BASIS_CORR=rimp2-def2-QZVPPD, SCF_ALGORITHM=GDM, xc_grid=000099000590, mem_total=3750, num_basis=208, num_pairs=22058, num_threads=1
P  -1.5868948950  -0.5565760911  0.0000000000
F  -2.1001970557  0.9684939279  0.0000000000
H  -2.4103716457  -1.0585324344  1.0406134876
H  -2.4103716457  -1.0585324344  -1.0406134876