4
charge=0, multiplicity=1, basis=def2-QZVPPD, AUX_BASIS_CORR=rimp2-def2-QZVPPD, SCF_ALGORITHM=GDM, xc_grid=000099000590, mem_total=3750, num_basis=195, num_pairs=19471, num_threads=1
N  -0.0835357121  -1.3373093307  0.0000000000
F  0.0616454005  -2.7625224774  0.0000000000
H  -0.6946988595  -1.1933705370  -0.8050893423
H  -0.6946988595  -1.1933705370  0.8050893423