4
charge=0, multiplicity=1, basis=def2-QZVPPD, AUX_BASIS_CORR=rimp2-def2-QZVPPD, SCF_ALGORITHM=GDM, xc_grid=000099000590, mem_total=3750, num_basis=162, num_pairs=13492, num_threads=1
N  0.0604461079  2.4225089263  0.0000000000
H  0.9588635545  2.8955678417  0.0000000000
H  -0.4480216768  2.7548196620  -0.8134336401
H  -0.4480216768  2.7548196620  0.8134336401