3
charge=0, multiplicity=1, basis=def2-QZVPPD, AUX_BASIS_CORR=rimp2-def2-QZVPPD, SCF_ALGORITHM=GDM, xc_grid=000099000590, mem_total=3750, num_basis=178, num_pairs=16224, num_threads=1
F  -2.4916583723  0.0843449617  0.0000000000
S  -0.8526903743  -0.1128745631  0.0000000000
H  -0.5703346476  1.1991989727  0.0000000000