3
charge=0, multiplicity=1, basis=def2-QZVPPD, AUX_BASIS_CORR=rimp2-def2-QZVPPD, SCF_ALGORITHM=GDM, xc_grid=000099000590, mem_total=3750, num_basis=211, num_pairs=22434, num_threads=1
S  0.5603820832  1.4536287136  0.0000000000
F  -0.4545846440  1.7205102938  -1.2096848531
F  -0.4545846440  1.7205102938  1.2096848531