3
charge=0, multiplicity=1, basis=d-aug-cc-pV5Z, AUX_BASIS_CORR=rimp2-def2-QZVPPD, SCF_ALGORITHM=GDM, xc_grid=000500000974, mem_total=3750, num_basis=315, num_pairs=49253, num_threads=1
He  0.0000000000  0.0000000000  0.0000000000
He  0.0000000000  0.0000000000  1.8309524200
He  2.1020152460  0.0000000000  1.0615044187