3
charge=0, multiplicity=1, basis=d-aug-cc-pV5Z, mem_total=3750, AUX_BASIS_CORR=rimp2-def2-QZVPPD, SCF_ALGORITHM=GDM, xc_grid=000500000974, num_basis=315, num_pairs=48528, num_threads=1
He  0.0000000000  0.0000000000  0.0000000000
He  0.0000000000  0.0000000000  1.0583540000
He  0.0000000000  0.0000000000  3.1750620000