3
charge=0, multiplicity=1, basis=d-aug-cc-pV5Z, AUX_BASIS_CORR=rimp2-def2-QZVPPD, SCF_ALGORITHM=GDM, xc_grid=000500000974, mem_total=3750, num_basis=315, num_pairs=50358, num_threads=1
He  0.0000000000  0.0000000000  0.0000000000
He  0.0000000000  0.0000000000  1.7621594100
He  1.5260748146  0.0000000000  0.8810797050