9
charge=0, multiplicity=1, basis=def2-QZVPPD, AUX_BASIS_CORR=rimp2-def2-QZVPPD, SCF_ALGORITHM=GDM, xc_grid=000099000590, mem_total=3750, num_basis=407, num_pairs=65222, num_threads=1
Pb  0.0000000000  0.0000000000  -2.6353650644
H  0.8121918121  -1.4067574840  -3.2083634802
H  0.8121918121  1.4067574840  -3.2083634802
H  -1.6243836242  0.0000000000  -3.2083634802
H  0.0000000000  0.0000000000  -0.9110577124
Bi  0.0000000000  0.0000000000  2.5261119447
H  1.4361894681  0.0000000000  3.5489696956
H  -0.7180947341  1.2437765640  3.5489696956
H  -0.7180947341  -1.2437765640  3.5489696956