4
charge=0, multiplicity=1, basis=def2-QZVPPD, AUX_BASIS_CORR=rimp2-def2-QZVPPD, SCF_ALGORITHM=GDM, xc_grid=000099000590, mem_total=3750, num_basis=224, num_pairs=25354, num_threads=1
S  -1.0230051700  -0.0119973700  -0.4682908900
S  1.0230051700  0.0119973700  -0.4682908900
H  -1.2354820600  0.9313506800  0.4682908900
H  1.2354820600  -0.9313506800  0.4682908900