18
charge=0, multiplicity=1, basis=def2-QZVPPD, AUX_BASIS_CORR=rimp2-def2-QZVPPD, SCF_ALGORITHM=GDM, xc_grid=000099000590, mem_total=15000, num_basis=838, num_pairs=301457, num_threads=4
As  -1.1497530900  0.4038147800  -1.0246159600
As  1.1497530900  -0.4038147800  -1.0246159600
C  -1.3851984500  0.9581560200  0.8508848200
C  -1.9949370500  -1.3685794100  -0.8693466000
C  1.9949370500  1.3685794100  -0.8693466000
C  1.3851984500  -0.9581560200  0.8508848200
H  -0.7415723400  1.8123961900  1.0634752100
H  -1.1637907100  0.1506887400  1.5484029100
H  -2.4222693800  1.2711571500  0.9828709400
H  -1.8113474800  -1.9323752200  -1.7839641700
H  -1.6117463100  -1.9286195400  -0.0153842500
H  -3.0709123600  -1.2327042500  -0.7523229100
H  1.8113474800  1.9323752200  -1.7839641700
H  3.0709123600  1.2327042500  -0.7523229100
H  1.6117463100  1.9286195400  -0.0153842500
H  0.7415723400  -1.8123961900  1.0634752100
H  2.4222693800  -1.2711571500  0.9828709400
H  1.1637907100  -0.1506887400  1.5484029100