7
charge=0, multiplicity=1, basis=def2-QZVPPD, AUX_BASIS_CORR=rimp2-def2-QZVPPD, SCF_ALGORITHM=GDM, xc_grid=000099000590, mem_total=3750, num_basis=319, num_pairs=44101, num_threads=1
Sb  -0.0434442776  -1.1692917150  0.0000000000
H  0.7145630972  -2.0484560297  1.2113740205
H  0.7145630972  -2.0484560297  -1.2113740205
H  -1.3764798325  -2.1897773733  0.0000000000
O  0.3581089012  2.6389807209  0.0000000000
H  0.1107863210  1.7103041496  0.0000000000
H  -0.4780973066  3.1066962772  0.0000000000