6
charge=0, multiplicity=1, basis=def2-QZVPPD, AUX_BASIS_CORR=rimp2-def2-QZVPPD, SCF_ALGORITHM=GDM, xc_grid=000099000590, mem_total=3750, num_basis=302, num_pairs=37975, num_threads=1
Te  0.0000000000  0.0000000000  -1.9751691076
H  -1.1532208078  0.0000000000  -3.1332313527
H  1.1532208078  0.0000000000  -3.1332313527
H  0.9602545416  0.0000000000  3.0551694267
S  0.0000000000  0.0000000000  2.1312929598
H  -0.9602545416  0.0000000000  3.0551694267