5
charge=0, multiplicity=1, basis=def2-QZVPPD, AUX_BASIS_CORR=rimp2-def2-QZVPPD, SCF_ALGORITHM=GDM, xc_grid=000099000590, mem_total=3750, num_basis=281, num_pairs=35709, num_threads=1
Te  -1.7692427349  -1.2434514712  0.0000000000
H  -0.5003775861  -0.2122699665  0.0000000000
H  -2.8014316901  0.0222469401  0.0000000000
H  2.8909295638  0.0054461708  0.0000000000
I  2.1801224474  1.4280283268  0.0000000000