18
charge=0, multiplicity=1, basis=def2-QZVPPD, AUX_BASIS_CORR=rimp2-def2-QZVPPD, SCF_ALGORITHM=GDM, xc_grid=000099000590, mem_total=15000, num_basis=824, num_pairs=289154, num_threads=4
Sb  -1.3393784300  0.4459785200  -1.2727968400
Sb  1.3393784300  -0.4459785200  -1.2727968400
C  -1.4042952400  1.1044187100  0.8346820500
C  -2.1621013000  -1.5613239800  -0.8471755500
C  2.1621013000  1.5613239800  -0.8471755500
C  1.4042952400  -1.1044187100  0.8346820500
H  -0.6991863900  1.9198763100  1.0087201800
H  -1.1611147700  0.2903061600  1.5187302800
H  -2.4012453200  1.4723556200  1.0851684300
H  -2.0200204600  -2.2290928600  -1.6988729500
H  -1.6905228700  -2.0161292700  0.0257777800
H  -3.2345085400  -1.4948980100  -0.6542333900
H  2.0200204600  2.2290928600  -1.6988729500
H  3.2345085400  1.4948980100  -0.6542333900
H  1.6905228700  2.0161292700  0.0257777800
H  0.6991863900  -1.9198763100  1.0087201800
H  2.4012453200  -1.4723556200  1.0851684300
H  1.1611147700  -0.2903061600  1.5187302800