9
charge=0, multiplicity=2, basis=def2-QZVPPD, AUX_BASIS_CORR=rimp2-def2-QZVPPD, SCF_ALGORITHM=GDM, xc_grid=000099000590, mem_total=3750, num_basis=419, num_pairs=84754, num_threads=1
As  0.0000000000  0.0000000000  -1.3379613700
C  0.0000000000  1.4592872200  -0.0214133400
C  0.0000000000  -1.4592872200  -0.0214133400
H  0.0000000000  2.4200200600  -0.5358815700
H  0.8867689100  1.3941924800  0.6131378000
H  -0.8867689100  1.3941924800  0.6131378000
H  0.0000000000  -2.4200200600  -0.5358815700
H  0.8867689100  -1.3941924800  0.6131378000
H  -0.8867689100  -1.3941924800  0.6131378000