7
charge=0, multiplicity=1, basis=def2-QZVPPD, AUX_BASIS_CORR=rimp2-def2-QZVPPD, SCF_ALGORITHM=GDM, xc_grid=000099000590, mem_total=3750, num_basis=319, num_pairs=46784, num_threads=1
Te  0.8521860426  -1.6337060798  0.0000000000
H  0.8895200996  -3.2771034995  0.0000000000
H  -0.7766674772  -1.6746603051  0.0000000000
N  -0.1747538249  1.3708981812  0.0000000000
H  -0.7182738102  1.6273343595  -0.8122595712
H  -0.7182738102  1.6273343595  0.8122595712
H  0.6462627802  1.9599029843  0.0000000000