9
charge=0, multiplicity=2, basis=def2-QZVPPD, AUX_BASIS_CORR=rimp2-def2-QZVPPD, SCF_ALGORITHM=GDM, xc_grid=000099000590, mem_total=3750, num_basis=412, num_pairs=81349, num_threads=1
Sb  0.0000000000  0.0000000000  -1.4879871800
C  0.0000000000  1.5724992400  -0.0058647300
C  0.0000000000  -1.5724992400  -0.0058647300
H  0.0000000000  2.5463929300  -0.4945600500
H  0.8880475800  1.4850136200  0.6222091800
H  -0.8880475800  1.4850136200  0.6222091800
H  0.0000000000  -2.5463929300  -0.4945600500
H  0.8880475800  -1.4850136200  0.6222091800
H  -0.8880475800  -1.4850136200  0.6222091800