4
charge=0, multiplicity=1, basis=def2-QZVPPD, AUX_BASIS_CORR=rimp2-def2-QZVPPD, SCF_ALGORITHM=GDM, xc_grid=000099000590, mem_total=3750, num_basis=187, num_pairs=17925, num_threads=1
Bi  0.0000000000  0.0000000000  0.7652040602
H  -0.7182277727  -1.2440069937  -0.2550813680
H  -0.7182277727  1.2440069937  -0.2550813680
H  1.4364555454  0.0000000000  -0.2550813680