8
charge=0, multiplicity=1, basis=def2-QZVPPD, AUX_BASIS_CORR=rimp2-def2-QZVPPD, SCF_ALGORITHM=GDM, xc_grid=000099000590, mem_total=3750, num_basis=377, num_pairs=58112, num_threads=1
Pb  -0.0027914680  -2.1514756235  0.0000000000
H  -0.0557238732  -0.4289852815  0.0000000000
H  -0.7960743791  -2.7501707283  1.4068565601
H  -0.7960743791  -2.7501707283  -1.4068565601
H  1.6391968440  -2.6724398985  0.0000000000
Te  0.0110670310  2.8132017532  0.0000000000
H  1.1546563365  3.9809245351  0.0000000000
H  -1.1542561120  3.9591159717  0.0000000000