6
charge=0, multiplicity=1, basis=def2-QZVPPD, AUX_BASIS_CORR=rimp2-def2-QZVPPD, SCF_ALGORITHM=GDM, xc_grid=000099000590, mem_total=3750, num_basis=318, num_pairs=43833, num_threads=1
Sb  0.0000000000  0.0000000000  0.7147090416
H  0.0000000000  0.0000000000  -2.1060038955
Br  0.0000000000  0.0000000000  -3.5288594622
H  -0.6998270544  -1.2121360147  1.6399849930
H  -0.6998270544  1.2121360147  1.6399849930
H  1.3996541088  0.0000000000  1.6399849930