10
charge=0, multiplicity=1, basis=def2-QZVPPD, AUX_BASIS_CORR=rimp2-def2-QZVPPD, SCF_ALGORITHM=GDM, xc_grid=000099000590, mem_total=3750, num_basis=506, num_pairs=114046, num_threads=1
Te  -0.1041636800  -1.3416203800  -1.4275909800
Te  0.1041636800  1.3416203800  -1.4275909800
C  -1.3714605300  1.7650457100  0.1580595600
C  1.3714605300  -1.7650457100  0.1580595600
H  2.3422853500  -1.3462077600  -0.1039760600
H  1.0417591700  -1.3497527200  1.1096231400
H  1.4722671400  -2.8476709100  0.2638843300
H  -2.3422853500  1.3462077600  -0.1039760600
H  -1.0417591700  1.3497527200  1.1096231400
H  -1.4722671400  2.8476709100  0.2638843300