7
charge=0, multiplicity=1, basis=def2-QZVPPD, AUX_BASIS_CORR=rimp2-def2-QZVPPD, SCF_ALGORITHM=GDM, xc_grid=000099000590, mem_total=3750, num_basis=332, num_pairs=48340, num_threads=1
Bi  0.8122084533  1.5808565316  0.0000000000
H  0.2461237925  2.6973239041  1.2429269607
H  0.2461237925  2.6973239041  -1.2429269607
H  -0.7677981555  0.7954404450  0.0000000000
H  0.1282907553  -3.5542425057  0.0000000000
S  0.3214763191  -2.2350829695  0.0000000000
H  -0.9864249572  -1.9816193096  0.0000000000