5
charge=0, multiplicity=1, basis=def2-QZVPPD, AUX_BASIS_CORR=rimp2-def2-QZVPPD, SCF_ALGORITHM=GDM, xc_grid=000099000590, mem_total=3750, num_basis=269, num_pairs=33125, num_threads=1
Te  -1.1062247063  -0.5922119789  0.0000000000
H  -1.2052503029  1.0363910034  0.0000000000
H  -2.7373795263  -0.7036258648  0.0000000000
H  2.6825555544  -0.4864377868  0.0000000000
Cl  2.3662989812  0.7458846271  0.0000000000