6
charge=0, multiplicity=1, basis=def2-QZVPPD, AUX_BASIS_CORR=rimp2-def2-QZVPPD, SCF_ALGORITHM=GDM, xc_grid=000099000590, mem_total=3750, num_basis=311, num_pairs=43063, num_threads=1
Sb  0.0000000000  0.0000000000  0.7543314028
H  0.0000000000  0.0000000000  -2.1034613219
I  0.0000000000  0.0000000000  -3.7023409601
H  -0.6990939250  -1.2108661973  1.6836128303
H  -0.6990939250  1.2108661973  1.6836128303
H  1.3981878499  0.0000000000  1.6836128303