8
charge=0, multiplicity=1, basis=def2-QZVPPD, AUX_BASIS_CORR=rimp2-def2-QZVPPD, SCF_ALGORITHM=GDM, xc_grid=000099000590, mem_total=3750, num_basis=349, num_pairs=56156, num_threads=1
Sb  0.7972442873  -1.5319905204  0.0000000000
H  -0.3459257468  -1.3194581272  1.2126780467
H  0.5284738443  -3.2056944092  0.0000000000
H  -0.3459257468  -1.3194581272  -1.2126780467
N  -0.0608435272  1.5780422012  0.0000000000
H  -0.6311871183  1.7718802232  0.8112262946
H  0.6893511257  2.2547985364  0.0000000000
H  -0.6311871183  1.7718802232  -0.8112262946