6
charge=0, multiplicity=1, basis=def2-QZVPPD, AUX_BASIS_CORR=rimp2-def2-QZVPPD, SCF_ALGORITHM=GDM, xc_grid=000099000590, mem_total=3750, num_basis=289, num_pairs=35815, num_threads=1
Te  0.0000000000  0.0000000000  -1.6202239744
H  -1.1472918542  0.0000000000  -2.7867642125
H  1.1472918542  0.0000000000  -2.7867642125
O  0.0000000000  0.0000000000  2.0052780316
H  -0.7561023986  0.0000000000  2.5942371839
H  0.7561023986  0.0000000000  2.5942371839