7
charge=0, multiplicity=1, basis=def2-QZVPPD, AUX_BASIS_CORR=rimp2-def2-QZVPPD, SCF_ALGORITHM=GDM, xc_grid=000099000590, mem_total=3750, num_basis=319, num_pairs=47283, num_threads=1
Bi  0.8817352281  -1.2135914580  -0.2884463984
H  0.6630493393  -2.9488100093  0.0066874636
H  0.1166101571  -0.8703690816  1.2633402738
H  -0.6947050929  -1.1674158448  -1.0758892422
O  0.0289783087  1.8947100189  0.0108130795
H  -0.6614194673  1.7453810887  0.6598369377
H  -0.3342484730  2.5600952861  -0.5763421141