3
charge=0, multiplicity=1, basis=def2-QZVPPD, AUX_BASIS_CORR=rimp2-def2-QZVPPD, SCF_ALGORITHM=GDM, xc_grid=000099000590, mem_total=3750, num_basis=157, num_pairs=12700, num_threads=1
Te  0.0000000000  0.0000000000  -0.7695491921
H  1.1553658356  0.0000000000  0.3847745961
H  -1.1553658356  0.0000000000  0.3847745961