7
charge=0, multiplicity=1, basis=def2-QZVPPD, AUX_BASIS_CORR=rimp2-def2-QZVPPD, SCF_ALGORITHM=GDM, xc_grid=000099000590, mem_total=3750, num_basis=344, num_pairs=52342, num_threads=1
Pb  0.0000000000  0.0000000000  -1.4130137018
H  0.0000000000  -1.3992183006  -0.4051354356
H  0.0000000000  1.3992183006  -0.4051354356
H  1.4086539982  0.0000000000  -2.4021760598
H  -1.4086539982  0.0000000000  -2.4021760598
H  0.0000000000  0.0000000000  4.3097250511
I  0.0000000000  0.0000000000  2.7179116416