8
charge=0, multiplicity=1, basis=def2-QZVPPD, AUX_BASIS_CORR=rimp2-def2-QZVPPD, SCF_ALGORITHM=GDM, xc_grid=000099000590, mem_total=3750, num_basis=388, num_pairs=69727, num_threads=1
Ge  0.0000000000  0.0000000000  -1.2112571000
Ge  0.0000000000  0.0000000000  1.2112571000
H  1.2482852600  0.7206978300  -1.7450729700
H  0.0000000000  -1.4413956600  -1.7450729700
H  -1.2482852600  0.7206978300  -1.7450729700
H  1.2482852600  -0.7206978300  1.7450729700
H  0.0000000000  1.4413956600  1.7450729700
H  -1.2482852600  -0.7206978300  1.7450729700