13
charge=0, multiplicity=2, basis=def2-QZVPPD, AUX_BASIS_CORR=rimp2-def2-QZVPPD, SCF_ALGORITHM=GDM, xc_grid=000099000590, mem_total=3750, num_basis=574, num_pairs=147078, num_threads=1
Sn  0.0000000000  0.0000000000  -0.8187808800
C  1.0093554500  1.7482549200  -0.0389532600
C  1.0093554500  -1.7482549200  -0.0389532600
C  -2.0187109000  0.0000000000  -0.0389532600
H  0.9851811300  1.7063837800  1.0529344500
H  2.0473485100  1.7700556200  -0.3705271200
H  0.5092388800  2.6580836300  -0.3705271200
H  -2.5565873900  0.8880280100  -0.3705271200
H  -2.5565873900  -0.8880280100  -0.3705271200
H  -1.9703622600  0.0000000000  1.0529344500
H  0.5092388800  -2.6580836300  -0.3705271200
H  2.0473485100  -1.7700556200  -0.3705271200
H  0.9851811300  -1.7063837800  1.0529344500