9
charge=0, multiplicity=2, basis=def2-QZVPPD, AUX_BASIS_CORR=rimp2-def2-QZVPPD, SCF_ALGORITHM=GDM, xc_grid=000099000590, mem_total=3750, num_basis=400, num_pairs=77862, num_threads=1
P  0.0000000000  0.0000000000  -1.2372819400
C  0.0000000000  1.3911012700  -0.0336682300
C  0.0000000000  -1.3911012700  -0.0336682300
H  0.0000000000  2.3436934000  -0.5647695600
H  0.8855732200  1.3514610900  0.6080263300
H  -0.8855732200  1.3514610900  0.6080263300
H  0.0000000000  -2.3436934000  -0.5647695600
H  0.8855732200  -1.3514610900  0.6080263300
H  -0.8855732200  -1.3514610900  0.6080263300