5
charge=0, multiplicity=2, basis=def2-QZVPPD, AUX_BASIS_CORR=rimp2-def2-QZVPPD, SCF_ALGORITHM=GDM, xc_grid=000099000590, mem_total=3750, num_basis=253, num_pairs=32396, num_threads=1
Te  -1.8855241000  -0.3639256300  0.0000000000
C  0.2150537100  0.0250108800  0.0000000000
H  0.6702012200  -0.3855559700  0.8970663900
H  0.6702012200  -0.3855559700  -0.8970663900
H  0.3300679500  1.1100266900  0.0000000000