26
charge=0, multiplicity=1, basis=def2-QZVPPD, mem_total=30000, AUX_BASIS_CORR=rimp2-def2-QZVPPD, SCF_ALGORITHM=GDM, xc_grid=000099000590, num_basis=1148, num_pairs=481815, num_threads=8
Pb  0.0000000000  0.0000000000  1.4374984200
Pb  0.0000000000  0.0000000000  -1.4374984200
C  1.7982121500  1.0381982700  2.2686972800
C  0.0000000000  -2.0763965400  2.2686972800
C  -1.7982121500  1.0381982700  2.2686972800
C  1.7982121500  -1.0381982700  -2.2686972800
C  0.0000000000  2.0763965400  -2.2686972800
C  -1.7982121500  -1.0381982700  -2.2686972800
H  1.7463480000  1.0082544900  3.3571899900
H  2.7002733500  0.5304162900  1.9296107500
H  1.8094906500  2.0732971700  1.9296107500
H  0.0000000000  2.0165089800  -3.3571899900
H  -0.8907826900  2.6037134600  -1.9296107500
H  0.8907826900  2.6037134600  -1.9296107500
H  -1.7463480000  -1.0082544900  -3.3571899900
H  -1.8094906500  -2.0732971700  -1.9296107500
H  -2.7002733500  -0.5304162900  -1.9296107500
H  -1.8094906500  2.0732971700  1.9296107500
H  -2.7002733500  0.5304162900  1.9296107500
H  -1.7463480000  1.0082544900  3.3571899900
H  1.7463480000  -1.0082544900  -3.3571899900
H  2.7002733500  -0.5304162900  -1.9296107500
H  1.8094906500  -2.0732971700  -1.9296107500
H  -0.8907826900  -2.6037134600  1.9296107500
H  0.8907826900  -2.6037134600  1.9296107500
H  0.0000000000  -2.0165089800  3.3571899900