11
charge=0, multiplicity=1, basis=AUG-PC-3, multipole_field={'Z': -0.004}, AUX_BASIS_CORR=rimp2-def2-QZVPPD, SCF_ALGORITHM=GDM, xc_grid=000099000590, mem_total=7500, num_basis=745, num_pairs=265887, num_threads=2
O  0.95045418 -0.16625563 -0.01472215
C  2.15587076 -0.10550064  0.03048498
O  2.96328449 -0.9420262  -0.64595025
C  2.27013084 -1.91763892 -1.42969707
C  2.95495505  0.87845305  0.82036831
H  3.04089399 -2.50775638 -1.90751692
H  1.64449762 -1.4305287  -2.17009547
H  1.64883088 -2.53929854 -0.79376635
H  2.2856959   1.5397438   1.35504465
H  3.59190447  1.45065659  0.15274145
H  3.59629182  0.35022157  1.51930881