6
charge=0, multiplicity=1, basis=AUG-PC-3, multipole_field={'Z': -0.004}, AUX_BASIS_CORR=rimp2-def2-QZVPPD, SCF_ALGORITHM=GDM, xc_grid=000099000590, mem_total=3750, num_basis=378, num_pairs=71907, num_threads=1
C  1.01570256  0.02684731 -0.09633148
C  2.34432744  0.02684735 -0.09633156
H  0.45633603 -0.81633974 -0.46704441
H  0.45633603  0.87003241  0.27438591
H  2.90369397 -0.81633968 -0.46704455
H  2.90369397  0.87003233  0.27438609