13
charge=0, multiplicity=1, basis=AUG-PC-3, AUX_BASIS_CORR=rimp2-def2-QZVPPD, SCF_ALGORITHM=GDM, xc_grid=000099000590, mem_total=15000, num_basis=806, num_pairs=317624, num_threads=4
C  1.0509495000  0.0402317200  0.0912777900
N  2.4958446000  0.0460138800  0.1085509300
C  2.9856289700  1.3768375300  0.3861717500
C  2.9861234900  -0.8826425800  1.1011623500
H  0.6902539300  0.7232348700  -0.6738401000
H  0.6245402100  0.3462533700  1.0586466300
H  0.6906221000  -0.9587347300  -0.1415960600
H  2.6322026200  2.0648636700  -0.3778373300
H  4.0727577400  1.3778708300  0.3739255300
H  2.6492388900  1.7450495300  1.3672620900
H  2.6330681500  -1.8850767700  0.8720824100
H  2.6497556500  -0.6195620500  2.1155202400
H  4.0732541500  -0.8900992600  1.0916037700