15
charge=0, multiplicity=1, basis=AUG-PC-3, AUX_BASIS_CORR=rimp2-def2-QZVPPD, SCF_ALGORITHM=GDM, xc_grid=000099000590, mem_total=30000, num_basis=1023, num_pairs=491564, num_threads=8
C  2.4838541100  -0.0051352000  -0.0143712100
C  0.9878927500  -0.0021752100  0.0088680900
C  0.2751132000  1.1907382000  -0.0614022800
C  -1.1126218400  1.1969633200  -0.0690688400
C  -1.8127663800  0.0000874000  -0.0047345100
C  -1.1152271300  -1.1977749400  0.0688509400
C  0.2725204900  -1.1937190600  0.0759250100
H  2.8834035900  0.9024523200  0.4310658700
H  2.8534390700  -0.0642330000  -1.0371973000
H  2.8814917000  -0.8566691500  0.5320189400
H  0.8143675900  2.1261756900  -0.1069918700
H  -1.6470181800  2.1334485700  -0.1210957700
H  -2.8916707800  0.0011634800  -0.0064273700
H  -1.6516586400  -2.1328805300  0.1246143200
H  0.8097404500  -2.1293719000  0.1380959800