12
charge=0, multiplicity=1, basis=AUG-PC-3, AUX_BASIS_CORR=rimp2-def2-QZVPPD, SCF_ALGORITHM=GDM, xc_grid=000099000590, mem_total=15000, num_basis=873, num_pairs=364754, num_threads=4
F  2.1490384600  -0.0153939900  -0.0018913200
C  0.8024537100  -0.0067849200  -0.0011425800
C  0.1452507800  1.2069272600  -0.0011494900
C  -1.2424456800  1.2075479600  -0.0006972500
C  -1.9457532700  0.0107857300  -0.0004883600
C  -1.2578056500  -1.1948713100  -0.0007799400
C  0.1297855700  -1.2119945400  -0.0010192300
H  0.7158403100  2.1205187500  -0.0014149600
H  -1.7721232000  2.1469709600  -0.0005973900
H  -3.0236054400  0.0176776300  -0.0001842900
H  -1.7994507700  -2.1274454000  -0.0006359500
H  0.6886451800  -2.1328081300  -0.0012292400