9
charge=0, multiplicity=1, basis=AUG-PC-3, AUX_BASIS_CORR=rimp2-def2-QZVPPD, SCF_ALGORITHM=GDM, xc_grid=000099000590, mem_total=3750, num_basis=567, num_pairs=159478, num_threads=1
C  1.2146085700  -0.2152308000  0.0000020800
C  -0.0823196900  0.5461369000  -0.0000003100
O  -1.1368655700  -0.4101320400  0.0000177400
H  2.0559372600  0.4732337800  -0.0000182100
H  1.2790616400  -0.8462781100  -0.8818959300
H  1.2790782400  -0.8462471200  0.8819209400
H  -0.1462762600  1.1826938400  -0.8840804700
H  -0.1462666100  1.1827168300  0.8840639000
H  -1.9727295900  0.0616927100  0.0000282700