12
charge=0, multiplicity=1, basis=AUG-PC-3, multipole_field={'Z': 0.004}, AUX_BASIS_CORR=rimp2-def2-QZVPPD, SCF_ALGORITHM=GDM, xc_grid=000099000590, mem_total=15000, num_basis=873, num_pairs=364754, num_threads=4
F  2.14903846 -0.01539399 -0.00189132
C  0.80245371 -0.00678492 -0.00114258
C  0.14525078  1.20692726 -0.00114949
C  -1.24244568  1.20754796 -0.00069725
C  -1.94575327  0.01078573 -0.00048836
C  -1.25780565 -1.19487131 -0.00077994
C  0.12978557 -1.21199454 -0.00101923
H  0.71584031  2.12051875 -0.00141496
H  -1.7721232   2.14697096 -0.00059739
H  -3.02360544  0.01767763 -0.00018429
H  -1.79945077 -2.1274454  -0.00063595
H  0.68864518 -2.13280813 -0.00122924