3
charge=0, multiplicity=1, basis=AUG-PC-3, AUX_BASIS_CORR=rimp2-def2-QZVPPD, SCF_ALGORITHM=GDM, xc_grid=000099000590, mem_total=3750, num_basis=267, num_pairs=36280, num_threads=1
O  1.0513323200  0.0241700000  0.0808400000
C  2.2172300000  0.0241700000  0.0808400000
O  3.3831276800  0.0241700000  0.0808400000