11
charge=0, multiplicity=1, basis=AUG-PC-3, AUX_BASIS_CORR=rimp2-def2-QZVPPD, SCF_ALGORITHM=GDM, xc_grid=000099000590, mem_total=7500, num_basis=667, num_pairs=219171, num_threads=2
C  1.0749508300  -0.0738421600  -0.0070276600
C  2.5919430900  -0.0482671900  -0.0294600200
C  3.1293845100  1.0192886100  -0.9642885400
H  0.6957196600  -0.8406141300  0.6644151200
H  0.6793117000  -0.2722733500  -1.0015682200
H  0.6793442000  0.8858126800  0.3209574400
H  2.9683200100  -1.0237452700  -0.3356292000
H  2.9683522700  0.1264475200  0.9778867800
H  2.7841550300  0.8476850300  -1.9823185200
H  4.2167049200  1.0328411900  -0.9761878200
H  2.7841937800  2.0057670800  -0.6597893600