10
charge=0, multiplicity=1, basis=AUG-PC-3, AUX_BASIS_CORR=rimp2-def2-QZVPPD, SCF_ALGORITHM=GDM, xc_grid=000099000590, mem_total=7500, num_basis=656, num_pairs=210976, num_threads=2
O  1.0849292800  -0.0614430500  -0.0192025900
C  2.2999248500  -0.0613913400  -0.0190338400
C  3.0934261200  1.1565613500  -0.3959969600
C  3.0934251400  -1.2794435100  0.3576098000
H  2.4265422900  1.9723526200  -0.6484788800
H  3.7388025300  0.9293176000  -1.2423218200
H  3.7388043100  1.4471156600  0.4307314600
H  2.4265406500  -2.0952950000  0.6098953100
H  3.7388029400  -1.0524035000  1.2039873900
H  3.7388018800  -1.5698008400  -0.4691898600