12
charge=0, multiplicity=1, basis=AUG-PC-3, AUX_BASIS_CORR=rimp2-def2-QZVPPD, SCF_ALGORITHM=GDM, xc_grid=000099000590, mem_total=15000, num_basis=834, num_pairs=336798, num_threads=4
C  1.3764749200  -0.2208797500  0.0054948100
C  0.5041445300  -1.3010657300  -0.0087389600
C  -0.8675480100  -1.0856765100  -0.0138063100
C  -1.3669131400  0.2098975100  -0.0044737500
C  -0.4945845300  1.2900810400  0.0098437700
C  0.8771110400  1.0746931100  0.0147330000
H  2.4421803400  -0.3882235000  0.0093517400
H  0.8921169700  -2.3076301700  -0.0159662600
H  -1.5452865000  -1.9248992300  -0.0248776200
H  -2.4326192700  0.3772361100  -0.0083570700
H  -0.8825517000  2.2966478300  0.0170279500
H  1.5548453500  1.9139192900  0.0257987000