13
charge=0, multiplicity=1, basis=AUG-PC-3, multipole_field={'Y': -0.004}, AUX_BASIS_CORR=rimp2-def2-QZVPPD, SCF_ALGORITHM=GDM, xc_grid=000099000590, mem_total=15000, num_basis=962, num_pairs=435092, num_threads=4
N  -0.0859297  -1.04135247  0.00099157
C  -1.12462707 -0.24473821 -0.00370364
C  -1.03913247  1.17783363 -0.00342656
C  0.20744645  1.6980395   0.00164925
N  1.2736291   0.87743445  0.0025745
C  1.17942378 -0.52638325 -0.00072187
N  -2.34524296 -0.82897165 -0.04041631
O  2.20413305 -1.18297521 -0.00058739
H  -1.90693041  1.81174196 -0.01215104
H  0.40446313  2.75783315  0.00361306
H  2.21246347  1.24004098  0.00552375
H  -2.37436478 -1.8244804   0.08796114
H  -3.1686496  -0.29513247  0.15599455