12
charge=0, multiplicity=1, basis=AUG-PC-3, multipole_field={'Z': -0.004}, AUX_BASIS_CORR=rimp2-def2-QZVPPD, SCF_ALGORITHM=GDM, xc_grid=000099000590, mem_total=7500, num_basis=756, num_pairs=277449, num_threads=2
C  0.97637941  0.08336572 -0.05190902
C  2.30840456  0.08336707 -0.05190921
C  3.10277324 -0.74530477  0.90279369
C  3.10277128  0.91204172 -1.0066113
H  0.41890286 -0.52237198  0.64595907
H  0.41890143  0.68910918 -0.74977097
H  2.45969554 -1.31961301  1.56444547
H  3.74997001 -0.11282335  1.51010255
H  3.74997174 -1.43552663  0.36200876
H  2.45969223  1.48634872 -1.66826283
H  3.74996983  0.27956238 -1.61392043
H  3.74996787  1.60226492 -0.46582579