10
charge=0, multiplicity=1, basis=AUG-PC-3, AUX_BASIS_CORR=rimp2-def2-QZVPPD, SCF_ALGORITHM=GDM, xc_grid=000099000590, mem_total=7500, num_basis=656, num_pairs=207369, num_threads=2
C  1.1116036000  -0.0229806200  -0.0112849800
C  2.4471078600  0.0011540400  -0.0328520800
C  3.2220702800  0.8932725400  -0.8659522000
C  4.5575751000  0.9174674000  -0.8874552300
H  0.5730410800  -0.7049729500  0.6256856300
H  0.5352735900  0.6438498900  -0.6350660500
H  2.9999783300  -0.6779066900  0.6024695000
H  2.6691995300  1.5723890000  -1.5012139500
H  5.1339045100  0.2506203500  -0.2636915600
H  5.0961361200  1.5994670500  -1.5244190700