6
charge=0, multiplicity=1, basis=AUG-PC-3, AUX_BASIS_CORR=rimp2-def2-QZVPPD, SCF_ALGORITHM=GDM, xc_grid=000099000590, mem_total=3750, num_basis=417, num_pairs=87111, num_threads=1
N  1.2024082300  -0.0670429100  -0.0008895800
C  2.3669768100  -0.0670412600  -0.0008833200
C  3.8158200400  -0.0670393200  -0.0008757200
H  4.1877346200  0.6257631000  -0.7482096600
H  4.1877341200  -1.0606516500  -0.2271899300
H  4.1877261900  0.2337720500  0.9727782200