9
charge=0, multiplicity=1, basis=AUG-PC-3, multipole_field={'X': -0.004}, AUX_BASIS_CORR=rimp2-def2-QZVPPD, SCF_ALGORITHM=GDM, xc_grid=000099000590, mem_total=3750, num_basis=567, num_pairs=159478, num_threads=1
C  1.21460857 -0.2152308   0.00000208
C  -0.08231969  0.5461369  -0.00000031
O  -1.13686557 -0.41013204  0.00001774
H  2.05593726  0.47323378 -0.00001821
H  1.27906164 -0.84627811 -0.88189593
H  1.27907824 -0.84624712  0.88192094
H  -0.14627626  1.18269384 -0.88408047
H  -0.14626661  1.18271683  0.8840639
H  -1.97272959  0.06169271  0.00002827