5
charge=0, multiplicity=1, basis=AUG-PC-3, multipole_field={'X': -0.004}, AUX_BASIS_CORR=rimp2-def2-QZVPPD, SCF_ALGORITHM=GDM, xc_grid=000099000590, mem_total=3750, num_basis=289, num_pairs=42366, num_threads=1
Si 1.05538617 -0.06158617  0.05603192
H  2.53068041 -0.06159104  0.05603269
H  0.56362585  1.03468542 -0.80003685
H  0.56362075  0.13165827  1.43346312
H  0.56361682 -1.35109648 -0.46533089