15
charge=0, multiplicity=1, basis=AUG-PC-3, multipole_field={'X': -0.004}, AUX_BASIS_CORR=rimp2-def2-QZVPPD, SCF_ALGORITHM=GDM, xc_grid=000099000590, mem_total=30000, num_basis=1023, num_pairs=491564, num_threads=8
C  2.48385411 -0.0051352  -0.01437121
C  0.98789275 -0.00217521  0.00886809
C  0.2751132   1.1907382  -0.06140228
C  -1.11262184  1.19696332 -0.06906884
C  -1.81276638  0.0000874  -0.00473451
C  -1.11522713 -1.19777494  0.06885094
C  0.27252049 -1.19371906  0.07592501
H  2.88340359  0.90245232  0.43106587
H  2.85343907 -0.064233   -1.0371973
H  2.8814917  -0.85666915  0.53201894
H  0.81436759  2.12617569 -0.10699187
H  -1.64701818  2.13344857 -0.12109577
H  -2.89167078  0.00116348 -0.00642737
H  -1.65165864 -2.13288053  0.12461432
H  0.80974045 -2.1293719   0.13809598