5
charge=0, multiplicity=1, basis=AUG-PC-3, AUX_BASIS_CORR=rimp2-def2-QZVPPD, SCF_ALGORITHM=GDM, xc_grid=000099000590, mem_total=3750, num_basis=328, num_pairs=54560, num_threads=1
C  1.0086231000  -0.0293920500  0.0925360500
F  2.3934089300  -0.0293909900  0.0925341900
H  0.6607172500  0.2916566300  1.0685334100
H  0.6607164500  -1.0351548600  -0.1174252500
H  0.6607142700  0.6553212800  -0.6734983900