3
charge=0, multiplicity=1, basis=AUG-PC-3, multipole_field={'Z': 0.004}, AUX_BASIS_CORR=rimp2-def2-QZVPPD, SCF_ALGORITHM=GDM, xc_grid=000099000590, mem_total=3750, num_basis=189, num_pairs=18323, num_threads=1
S  0.99222193  0.0566324   0.01224741
H  2.30854164 -0.01668194  0.20162892
H  0.74491643 -0.41585046  1.23271367