7
charge=0, multiplicity=1, basis=AUG-PC-3, multipole_field={'Z': 0.004}, AUX_BASIS_CORR=rimp2-def2-QZVPPD, SCF_ALGORITHM=GDM, xc_grid=000099000590, mem_total=3750, num_basis=467, num_pairs=108988, num_threads=1
O  1.02303542 -0.07485048 -0.09622962
C  2.23195484 -0.01129234 -0.07201421
C  3.00798813  1.17866229  0.38095287
H  2.83658093 -0.87119086 -0.39938203
H  2.34259313  1.9782107   0.68531409
H  3.65478025  1.51425458 -0.42788516
H  3.65478731  0.89145611  1.20820406