3
charge=0, multiplicity=1, basis=AUG-PC-3, AUX_BASIS_CORR=rimp2-def2-QZVPPD, SCF_ALGORITHM=GDM, xc_grid=000099000590, mem_total=3750, num_basis=267, num_pairs=36237, num_threads=1
O  0.9772164600  -0.0869516700  -0.0297752500
S  2.4317209000  -0.0150041100  -0.1237679000
O  3.0281426400  0.7945257800  -1.1813768500