10
charge=0, multiplicity=1, basis=AUG-PC-3, multipole_field={'Z': -0.004}, AUX_BASIS_CORR=rimp2-def2-QZVPPD, SCF_ALGORITHM=GDM, xc_grid=000099000590, mem_total=7500, num_basis=656, num_pairs=210976, num_threads=2
O  1.08492928 -0.06144305 -0.01920259
C  2.29992485 -0.06139134 -0.01903384
C  3.09342612  1.15656135 -0.39599696
C  3.09342514 -1.27944351  0.3576098
H  2.42654229  1.97235262 -0.64847888
H  3.73880253  0.9293176  -1.24232182
H  3.73880431  1.44711566  0.43073146
H  2.42654065 -2.095295    0.60989531
H  3.73880294 -1.0524035   1.20398739
H  3.73880188 -1.56980084 -0.46918986