3
charge=0, multiplicity=1, basis=AUG-PC-3, AUX_BASIS_CORR=rimp2-def2-QZVPPD, SCF_ALGORITHM=GDM, xc_grid=000099000590, mem_total=3750, num_basis=189, num_pairs=18323, num_threads=1
S  0.9922219300  0.0566324000  0.0122474100
H  2.3085416400  -0.0166819400  0.2016289200
H  0.7449164300  -0.4158504600  1.2327136700