3
charge=0, multiplicity=1, basis=AUG-PC-3, AUX_BASIS_CORR=rimp2-def2-QZVPPD, SCF_ALGORITHM=GDM, xc_grid=000099000590, mem_total=3750, num_basis=189, num_pairs=18332, num_threads=1
O  0.8953807900  -0.0119756300  -0.0338431800
H  1.8531937800  -0.0476142900  -0.0088463100
H  0.6171654200  -0.7631900800  0.4930095000