10
charge=0, multiplicity=1, basis=AUG-PC-3, multipole_field={'Y': -0.004}, AUX_BASIS_CORR=rimp2-def2-QZVPPD, SCF_ALGORITHM=GDM, xc_grid=000099000590, mem_total=7500, num_basis=656, num_pairs=207369, num_threads=2
C  1.1116036  -0.02298062 -0.01128498
C  2.44710786  0.00115404 -0.03285208
C  3.22207028  0.89327254 -0.8659522
C  4.5575751   0.9174674  -0.88745523
H  0.57304108 -0.70497295  0.62568563
H  0.53527359  0.64384989 -0.63506605
H  2.99997833 -0.67790669  0.6024695
H  2.66919953  1.572389   -1.50121395
H  5.13390451  0.25062035 -0.26369156
H  5.09613612  1.59946705 -1.52441907