8
charge=0, multiplicity=1, basis=AUG-PC-3, AUX_BASIS_CORR=rimp2-def2-QZVPPD, SCF_ALGORITHM=GDM, xc_grid=000099000590, mem_total=3750, num_basis=556, num_pairs=152978, num_threads=1
O  2.7695504800  -0.5892381500  -0.8105858500
C  2.2319406600  0.1177467800  0.0017906400
O  2.8549074900  0.8929610300  0.8926534400
C  4.2854148900  0.8327277700  0.8226615000
H  1.1546234300  0.2249701400  0.1252401300
H  4.6428417700  1.5026348300  1.5927712000
H  4.6254278900  1.1538542100  -0.1559791800
H  4.6260233800  -0.1808266100  1.0047681100