12
charge=0, multiplicity=1, basis=AUG-PC-3, multipole_field={'Y': 0.004}, AUX_BASIS_CORR=rimp2-def2-QZVPPD, SCF_ALGORITHM=GDM, xc_grid=000099000590, mem_total=15000, num_basis=873, num_pairs=365285, num_threads=4
Cl -2.08360356 -0.01613084 -0.03338824
C  -0.35543643 -0.00700482 -0.01800846
C  0.31760194  1.20396774 -0.01151829
C  1.70479595  1.20431521  0.00122062
C  2.40795419  0.00758762  0.00712387
C  1.71748381 -1.19649916  0.00011482
C  0.33036263 -1.21080177 -0.01252016
H  -0.24025002  2.12570159 -0.01611166
H  2.23512979  2.14355896  0.00649316
H  3.48605338  0.01328073  0.01680983
H  2.25771481 -2.13008963  0.0045791
H  -0.2177165  -2.13837562 -0.01792459