6
charge=0, multiplicity=1, basis=AUG-PC-3, multipole_field={'X': 0.004}, AUX_BASIS_CORR=rimp2-def2-QZVPPD, SCF_ALGORITHM=GDM, xc_grid=000099000590, mem_total=3750, num_basis=417, num_pairs=87111, num_threads=1
N  1.20240823 -0.06704291 -0.00088958
C  2.36697681 -0.06704126 -0.00088332
C  3.81582004 -0.06703932 -0.00087572
H  4.18773462  0.6257631  -0.74820966
H  4.18773412 -1.06065165 -0.22718993
H  4.18772619  0.23377205  0.97277822