9
charge=0, multiplicity=1, basis=AUG-PC-3, AUX_BASIS_CORR=rimp2-def2-QZVPPD, SCF_ALGORITHM=GDM, xc_grid=000099000590, mem_total=7500, num_basis=645, num_pairs=204371, num_threads=2
C  0.1076195900  1.2313942800  -0.0048569000
C  1.3767754300  0.7104009400  0.0013550600
C  1.3812656400  -0.6963471000  0.0011612900
C  0.1154602500  -1.2254300200  -0.0049278500
S  -1.0715142900  -0.0007932900  -0.0109522500
H  -0.1861855100  2.2638867100  -0.0062601900
H  2.2618441900  1.3224717700  0.0057121100
H  2.2702234300  -1.3027566700  0.0053927000
H  -0.1717487300  -2.2597766300  -0.0063939700