9
charge=0, multiplicity=1, basis=AUG-PC-3, AUX_BASIS_CORR=rimp2-def2-QZVPPD, SCF_ALGORITHM=GDM, xc_grid=000099000590, mem_total=7500, num_basis=645, num_pairs=205377, num_threads=2
C  -0.1969478200  1.0933666500  -0.0050734100
C  1.0833447500  0.6354511100  0.0052176400
C  0.9969261900  -0.7806408400  0.0057817900
C  -0.3295487900  -1.0794832200  -0.0041821500
O  -1.0685363400  0.0560830000  -0.0107421600
H  -0.6341861400  2.0721963400  -0.0093022200
H  1.9697231300  1.2390235500  0.0115165200
H  1.8033331900  -1.4875123100  0.0126018300
H  -0.8825681600  -1.9978842800  -0.0076378400