4
charge=0, multiplicity=1, basis=AUG-PC-3, AUX_BASIS_CORR=rimp2-def2-QZVPPD, SCF_ALGORITHM=GDM, xc_grid=000099000590, mem_total=3750, num_basis=239, num_pairs=29144, num_threads=1
N  0.9536496200  0.0298631600  -0.1110438000
H  1.9622697600  0.0353271800  -0.0702773700
H  0.6368347900  0.9021033700  0.2862366000
H  0.6368258300  -0.7068037100  0.5021045700