13
charge=0, multiplicity=1, basis=AUG-PC-3, AUX_BASIS_CORR=rimp2-def2-QZVPPD, SCF_ALGORITHM=GDM, xc_grid=000099000590, mem_total=15000, num_basis=962, num_pairs=435092, num_threads=4
N  -0.0859297000  -1.0413524700  0.0009915700
C  -1.1246270700  -0.2447382100  -0.0037036400
C  -1.0391324700  1.1778336300  -0.0034265600
C  0.2074464500  1.6980395000  0.0016492500
N  1.2736291000  0.8774344500  0.0025745000
C  1.1794237800  -0.5263832500  -0.0007218700
N  -2.3452429600  -0.8289716500  -0.0404163100
O  2.2041330500  -1.1829752100  -0.0005873900
H  -1.9069304100  1.8117419600  -0.0121510400
H  0.4044631300  2.7578331500  0.0036130600
H  2.2124634700  1.2400409800  0.0055237500
H  -2.3743647800  -1.8244804000  0.0879611400
H  -3.1686496000  -0.2951324700  0.1559945500