10
charge=0, multiplicity=1, basis=AUG-PC-3, multipole_field={'Z': 0.004}, AUX_BASIS_CORR=rimp2-def2-QZVPPD, SCF_ALGORITHM=GDM, xc_grid=000099000590, mem_total=3750, num_basis=617, num_pairs=188308, num_threads=1
C  0.96913007  0.00806582  0.09377975
N  2.41653222 -0.05428216  0.09642423
C  2.9260764  -0.57629129  1.34811845
H  0.62028441  0.4709815  -0.82477869
H  0.55445978  0.56113068  0.94496325
H  0.57111035 -1.0037306   0.12990401
H  2.79235089  0.86995304 -0.05933398
H  2.62503789 -1.61704695  1.4464045
H  2.557057   -0.0368581   2.22856269
H  4.01168099 -0.54171194  1.34899579