12
charge=0, multiplicity=1, basis=AUG-PC-3, AUX_BASIS_CORR=rimp2-def2-QZVPPD, SCF_ALGORITHM=GDM, xc_grid=000099000590, mem_total=15000, num_basis=873, num_pairs=365285, num_threads=4
Cl  -2.0836035600  -0.0161308400  -0.0333882400
C  -0.3554364300  -0.0070048200  -0.0180084600
C  0.3176019400  1.2039677400  -0.0115182900
C  1.7047959500  1.2043152100  0.0012206200
C  2.4079541900  0.0075876200  0.0071238700
C  1.7174838100  -1.1964991600  0.0001148200
C  0.3303626300  -1.2108017700  -0.0125201600
H  -0.2402500200  2.1257015900  -0.0161116600
H  2.2351297900  2.1435589600  0.0064931600
H  3.4860533800  0.0132807300  0.0168098300
H  2.2577148100  -2.1300896300  0.0045791000
H  -0.2177165000  -2.1383756200  -0.0179245900