9
charge=0, multiplicity=1, basis=AUG-PC-3, AUX_BASIS_CORR=rimp2-def2-QZVPPD, SCF_ALGORITHM=GDM, xc_grid=000099000590, mem_total=3750, num_basis=567, num_pairs=159182, num_threads=1
C  0.9260460300  -0.0605547000  0.0270454000
O  2.3323555600  -0.0692165400  0.0127589900
C  2.8168749700  -0.7537556900  -1.1162373600
H  0.6115237000  0.4775095100  0.9144636500
H  0.5263148800  -1.0771821900  0.0617459000
H  0.5263144700  0.4402848500  -0.8583330400
H  3.9001609600  -0.7281450600  -1.0739987800
H  2.4811495100  -0.2763815700  -2.0403168600
H  2.4811499300  -1.7938486000  -1.1202379000