11
charge=0, multiplicity=1, basis=AUG-PC-3, multipole_field={'Y': -0.004}, AUX_BASIS_CORR=rimp2-def2-QZVPPD, SCF_ALGORITHM=GDM, xc_grid=000099000590, mem_total=7500, num_basis=784, num_pairs=298852, num_threads=2
C  -0.69668016  1.11481797  0.00332385
C  0.6866012   1.21475089  0.00069912
C  1.43881634  0.05171762  0.00116345
C  0.77166252 -1.16210801  0.00405454
C  -0.61522425 -1.16130623  0.00606916
N  -1.35148873 -0.04813383  0.00580533
H  -1.3083854   2.00565177  0.00251052
H  1.15789732  2.18437004 -0.00168202
H  2.51680896  0.09029276 -0.00061773
H  1.31106662 -2.09555844  0.00475142
H  -1.16168442 -2.09358454  0.00872236