4
charge=0, multiplicity=1, basis=AUG-PC-3, AUX_BASIS_CORR=rimp2-def2-QZVPPD, SCF_ALGORITHM=GDM, xc_grid=000099000590, mem_total=3750, num_basis=239, num_pairs=29117, num_threads=1
P  0.9399146200  0.0551449600  -0.2979075400
H  2.3066130600  0.0588338800  0.0343455100
H  0.6409846300  1.0853090900  0.6118578400
H  0.6409776900  -0.9545379200  0.6345341900