10
charge=0, multiplicity=1, basis=AUG-PC-3, AUX_BASIS_CORR=rimp2-def2-QZVPPD, SCF_ALGORITHM=GDM, xc_grid=000099000590, mem_total=3750, num_basis=617, num_pairs=188308, num_threads=1
C  0.9691300700  0.0080658200  0.0937797500
N  2.4165322200  -0.0542821600  0.0964242300
C  2.9260764000  -0.5762912900  1.3481184500
H  0.6202844100  0.4709815000  -0.8247786900
H  0.5544597800  0.5611306800  0.9449632500
H  0.5711103500  -1.0037306000  0.1299040100
H  2.7923508900  0.8699530400  -0.0593339800
H  2.6250378900  -1.6170469500  1.4464045000
H  2.5570570000  -0.0368581000  2.2285626900
H  4.0116809900  -0.5417119400  1.3489957900