17
charge=0, multiplicity=1, basis=def2-QZVPPD, AUX_BASIS_CORR=rimp2-def2-QZVPPD, SCF_ALGORITHM=GDM, xc_grid=000099000590, mem_total=7500, num_basis=776, num_pairs=246825, num_threads=2
Si  0.0000000000  -2.0614138700  -0.8729222600
Si  0.0000000000  0.0000000000  -2.0297728200
Si  0.0000000000  2.0614138700  -0.8729222600
Si  0.0000000000  2.0406643600  1.4729671200
Si  0.0000000000  -2.0406643600  1.4729671200
H  1.1979959300  -2.8254845200  -1.3182201200
H  -1.1979959300  -2.8254845200  -1.3182201200
H  -1.1967684300  0.0000000000  -2.9151835700
H  1.1967684300  0.0000000000  -2.9151835700
H  1.1979959300  2.8254845200  -1.3182201200
H  -1.1979959300  2.8254845200  -1.3182201200
H  0.0000000000  3.4404145000  1.9722957000
H  -1.2060855300  1.3527808400  1.9974689700
H  1.2060855300  1.3527808400  1.9974689700
H  0.0000000000  -3.4404145000  1.9722957000
H  1.2060855300  -1.3527808400  1.9974689700
H  -1.2060855300  -1.3527808400  1.9974689700