18
charge=0, multiplicity=1, basis=def2-QZVPPD, mem_total=15000, AUX_BASIS_CORR=rimp2-def2-QZVPPD, SCF_ALGORITHM=GDM, xc_grid=000099000590, num_basis=852, num_pairs=303274, num_threads=4
Si  0.6713992700  0.9617187200  1.8052134800
Si  -0.6713992700  -0.9617187200  1.8052134800
Si  0.0000000000  -2.3139579500  0.0000000000
Si  0.6713992700  -0.9617187200  -1.8052134800
Si  -0.6713992700  0.9617187200  -1.8052134800
Si  0.0000000000  2.3139579500  0.0000000000
H  2.0857388700  0.5478261400  1.5948939000
H  0.5976121900  1.7111548300  3.0884979400
H  -0.5976121900  -1.7111548300  3.0884979400
H  -2.0857388700  -0.5478261400  1.5948939000
H  -1.1258142900  -3.1874150800  -0.4291738600
H  1.1258142900  -3.1874150800  0.4291738600
H  2.0857388700  -0.5478261400  -1.5948939000
H  0.5976121900  -1.7111548300  -3.0884979400
H  -2.0857388700  0.5478261400  -1.5948939000
H  -0.5976121900  1.7111548300  -3.0884979400
H  -1.1258142900  3.1874150800  0.4291738600
H  1.1258142900  3.1874150800  -0.4291738600