8
charge=0, multiplicity=1, basis=def2-QZVPPD, AUX_BASIS_CORR=rimp2-def2-QZVPPD, SCF_ALGORITHM=GDM, xc_grid=000099000590, mem_total=3750, num_basis=632, num_pairs=182552, num_threads=1
S  -2.3673097500  0.1591257200  0.0000000000
S  -1.4271677300  -0.5118380100  -1.7270929700
S  -0.0339189700  0.9306737900  -2.1524500000
S  1.8511029700  0.0265054600  -1.7199132300
S  1.5872772100  -1.0498082200  0.0000000000
S  1.8511029700  0.0265054600  1.7199132300
S  -0.0339189700  0.9306737900  2.1524500000
S  -1.4271677300  -0.5118380100  1.7270929700