14
charge=0, multiplicity=1, basis=def2-QZVPPD, AUX_BASIS_CORR=rimp2-def2-QZVPPD, SCF_ALGORITHM=GDM, xc_grid=000099000590, mem_total=7500, num_basis=763, num_pairs=254958, num_threads=2
P  -0.6893655100  1.7191620000  0.6081942600
P  -2.0048434600  0.6960096300  -0.8899710900
P  -2.1371204900  -1.4122872600  -0.2512458900
P  -0.2432571400  -1.7310933300  0.9132867100
P  1.1492392700  -1.3927172000  -0.8064617500
P  2.3947833700  0.2712669400  -0.0072107100
P  1.1163167900  1.9442631700  -0.6972041200
H  -1.1915335900  3.0109280000  0.2786267200
H  -1.0255780800  0.4544941200  -1.8893056400
H  -2.9363109500  -1.1036354100  0.8827753200
H  -0.2443515900  -3.1436782800  0.7194482400
H  2.0531206300  -2.3973637900  -0.3692028400
H  1.9889383500  0.2042760100  1.3541131800
H  1.7699624000  2.8803753900  0.1541576200