13
charge=0, multiplicity=1, basis=def2-QZVPPD, mem_total=7500, AUX_BASIS_CORR=rimp2-def2-QZVPPD, SCF_ALGORITHM=GDM, xc_grid=000099000590, num_basis=746, num_pairs=245061, num_threads=2
O  2.5477016400  0.1763711800  -0.9624367300
P  1.3574012100  0.0879110200  0.0730995500
O  1.2660429800  1.2502326300  0.9804673200
O  0.0000000000  0.0000000000  -0.8444186900
P  -1.3574012100  -0.0879110200  0.0730995500
O  -1.2660429800  -1.2502326300  0.9804673200
O  -1.4862994300  1.3658021900  0.6923396500
O  -2.5477016400  -0.1763711800  -0.9624367300
O  1.4862994300  -1.3658021900  0.6923396500
H  2.7541657600  -0.6756942600  -1.3839525000
H  -0.5866314500  1.6395293600  1.0226920600
H  -2.7541657600  0.6756942600  -1.3839525000
H  0.5866314500  -1.6395293600  1.0226920600