12
charge=0, multiplicity=1, basis=def2-QZVPPD, AUX_BASIS_CORR=rimp2-def2-QZVPPD, SCF_ALGORITHM=GDM, xc_grid=000099000590, mem_total=3750, num_basis=615, num_pairs=179297, num_threads=1
N  -1.2019141100  -0.7593940500  0.0000000000
P  -1.0583540700  0.1245511000  -1.4771675100
N  0.5856794400  0.7075837200  -1.3754563200
P  1.6001282800  0.4809971900  0.0000000000
N  0.5856794400  0.7075837200  1.3754563200
P  -1.0583540700  0.1245511000  1.4771675100
H  -0.6847983700  -1.6276773200  0.0000000000
H  -0.8472338800  -1.0488315500  -2.2545707900
H  0.6827074500  1.6366479900  -1.7604708500
H  1.5609863000  -0.9338283400  0.0000000000
H  0.6827074500  1.6366479900  1.7604708500
H  -0.8472338800  -1.0488315500  2.2545707900