8
charge=0, multiplicity=1, basis=def2-QZVPPD, AUX_BASIS_CORR=rimp2-def2-QZVPPD, SCF_ALGORITHM=GDM, xc_grid=000099000590, mem_total=3750, num_basis=354, num_pairs=62128, num_threads=1
N  -0.4545152200  0.2187019300  0.0000000000
N  0.3723233600  0.1975791500  1.1735397100
N  0.3723233600  0.1975791500  -1.1735397100
H  0.5026612000  -0.7519548700  -1.5308219100
H  -0.1108937800  0.7425390700  -1.8845993300
H  0.5026612000  -0.7519548700  1.5308219100
H  -0.1108937800  0.7425390700  1.8845993300
H  -1.0736663400  -0.5950286500  0.0000000000