10
charge=0, multiplicity=1, basis=def2-QZVPPD, AUX_BASIS_CORR=rimp2-def2-QZVPPD, SCF_ALGORITHM=GDM, xc_grid=000099000590, mem_total=3750, num_basis=450, num_pairs=98976, num_threads=1
N  -0.0123462700  -0.5989619200  0.8552909200
N  1.4005778900  -0.6727917400  0.6916755600
H  1.7910999500  0.2789672100  0.6986668400
H  1.5444178400  -1.0338087100  -0.2506193500
H  -0.1570512700  -0.3605594700  1.8402593200
N  -0.5359258700  0.6123696300  0.1494939000
N  -0.5676465000  0.2560839000  -1.2410641700
H  -1.4974156500  0.6790391100  0.5079692300
H  -0.5624327500  1.1233421700  -1.7714974400
H  -1.4032773800  -0.2836801700  -1.4801748200