13
charge=0, multiplicity=1, basis=def2-QZVPPD, AUX_BASIS_CORR=rimp2-def2-QZVPPD, SCF_ALGORITHM=GDM, xc_grid=000099000590, mem_total=7500, num_basis=746, num_pairs=244917, num_threads=2
O  -2.5382024800  -0.0877152000  -1.0272423400
P  -1.3594172700  -0.0797040000  0.0296931800
O  -1.2773838000  -1.2528555600  0.9341731000
O  0.0000000000  0.0000000000  -0.8788373900
P  1.3594172700  0.0797040000  0.0296931800
O  1.2773838000  1.2528555600  0.9341731000
O  1.4941621900  -1.3628327600  0.6497083100
O  2.5382024800  0.0877152000  -1.0272423400
O  -1.4941621900  1.3628327600  0.6497083100
H  -2.9154538800  -0.9787366500  -1.1233410300
H  0.5964037500  -1.6407737500  0.9764274800
H  2.9154538800  0.9787366500  -1.1233410300
H  -0.5964037500  1.6407737500  0.9764274800