10
charge=0, multiplicity=1, basis=def2-QZVPPD, AUX_BASIS_CORR=rimp2-def2-QZVPPD, SCF_ALGORITHM=GDM, xc_grid=000099000590, mem_total=3750, num_basis=450, num_pairs=99767, num_threads=1
N  -0.3612048400  -0.9242980300  0.2725766000
N  1.0224706000  -1.2586207800  0.1770193400
H  1.5967031000  -0.4090437100  0.1135754800
H  1.1337776800  -1.7585580200  -0.7039597700
H  -0.5022586900  -0.6294548700  1.2460467700
N  -0.7420697900  0.1470255400  -0.6185355200
N  -0.4215001800  1.4819806400  -0.1930873200
H  -1.7580042400  0.0995215900  -0.6780412000
H  -0.5164090100  1.5840912200  0.8251149700
H  0.5484953700  1.6673564200  -0.4407093500