11
charge=0, multiplicity=1, basis=def2-QZVPPD, mem_total=7500, AUX_BASIS_CORR=rimp2-def2-QZVPPD, SCF_ALGORITHM=GDM, xc_grid=000099000590, num_basis=686, num_pairs=210802, num_threads=2
O  -2.1929520000  0.6268447600  -0.9285083400
S  -1.2621057000  -0.3085521600  -0.0445002100
O  -1.0379524600  0.2995920600  1.2508256200
O  -1.7562608500  -1.6329605900  -0.1947225500
O  0.1165440300  -0.1078962400  -0.9131875000
S  1.6000969200  -0.3665570000  -0.1398111400
O  1.6168602900  0.8663526000  0.8554256700
O  1.4934558600  -1.6032361500  0.5724028700
O  2.5543878500  -0.1015025600  -1.1610668900
H  -1.9723564200  1.5641959400  -0.7576344700
H  0.8402824800  0.7637193300  1.4607769500