14
charge=0, multiplicity=1, basis=def2-QZVPPD, mem_total=7500, AUX_BASIS_CORR=rimp2-def2-QZVPPD, SCF_ALGORITHM=GDM, xc_grid=000099000590, num_basis=763, num_pairs=253479, num_threads=2
P  -0.5837787000  1.7770004500  0.8665015500
P  -2.4053892400  1.0648769900  -0.2355290600
P  -1.9612690000  -1.0643843900  -0.6180722400
P  -0.4924716000  -1.6655634000  0.9642626300
P  1.3234717000  -1.8304236700  -0.3411962400
P  2.2480454000  0.1135001000  0.2975737900
P  0.8240794800  1.4274484400  -0.8474670800
H  -0.7776931000  3.1416685300  0.5066099900
H  -3.1621744400  0.7813037300  0.9336689800
H  -1.0367693700  -0.8048780300  -1.6637322900
H  -0.7871549000  -3.0503887800  0.8271128100
H  2.0507839600  -2.5732392600  0.6357451900
H  3.1781704500  0.0911880300  -0.7844464600
H  1.5821493800  2.5918912600  -0.5410315900