11
charge=0, multiplicity=1, basis=def2-QZVPPD, mem_total=7500, AUX_BASIS_CORR=rimp2-def2-QZVPPD, SCF_ALGORITHM=GDM, xc_grid=000099000590, num_basis=686, num_pairs=209609, num_threads=2
O  -2.0893827100  0.8242631500  -0.7945187500
S  -1.2039569500  -0.2023795400  0.0379368400
O  -0.9693648300  0.4146989200  1.3183590200
O  -1.7281568100  -1.5255641200  -0.0988942300
O  0.1673408000  -0.0682365000  -0.8415696100
S  1.6577090500  -0.2643271700  -0.0536268200
O  1.6640254400  1.0281762100  0.8567506100
O  1.5599309000  -1.4558992900  0.7333428000
O  2.6068956200  -0.0633164800  -1.0942376800
H  -2.5381744700  0.3387510400  -1.5149614900
H  0.8731339400  0.9738337900  1.4514193100