8
charge=0, multiplicity=1, basis=def2-QZVPPD, AUX_BASIS_CORR=rimp2-def2-QZVPPD, SCF_ALGORITHM=GDM, xc_grid=000099000590, mem_total=3750, num_basis=354, num_pairs=63230, num_threads=1
N  -0.7790719700  0.1099483200  0.0000000000
N  -0.0314996200  0.0169845700  1.2227246200
N  -0.0314996200  0.0169845700  -1.2227246200
H  0.7380761900  -0.6595338400  -1.1308490100
H  0.3890376600  0.9305163600  -1.3889688900
H  0.7380761900  -0.6595338400  1.1308490100
H  0.3890376600  0.9305163600  1.3889688900
H  -1.4121564800  -0.6858825000  0.0000000000