44
charge=0, multiplicity=1, basis=def2-QZVPPD, AUX_BASIS_CORR=rimp2-def2-QZVPPD, SCF_ALGORITHM=GDM, xc_grid=000099000590, mem_total=120000, num_basis=1872, num_pairs=1160540, num_threads=32
C  -2.2243258091  -0.2532496522  0.1670151946
C  -1.6365299798  0.4527844299  1.3996579995
C  -1.5388088536  -0.4783828598  2.6263500827
C  -0.7641132408  0.1229066044  3.8258650323
C  0.7641132408  -0.1229066044  3.8258650323
C  1.5388088536  0.4783828598  2.6263500827
C  1.6365299798  -0.4527844299  1.3996579995
C  2.2243258091  0.2532496522  0.1670151946
C  2.3222733398  -0.6594041338  -1.0674797806
C  2.9451444968  0.0434702727  -2.2875954584
C  3.0561098450  -0.8797480374  -3.5161175861
C  -2.3222733398  0.6594041338  -1.0674797806
C  -2.9451444968  -0.0434702727  -2.2875954584
C  -3.0561098450  0.8797480374  -3.5161175861
H  -3.2259052397  -0.6462992032  0.4108160537
H  -1.5972329960  -1.1275359165  -0.0776924894
H  -0.6468056535  0.8525905442  1.1420000937
H  -2.2624167979  1.3221739855  1.6607950074
H  -1.0651143224  -1.4281133079  2.3289382232
H  -2.5634885650  -0.7326056154  2.9404071559
H  -0.9508962906  1.2097535307  3.8643211472
H  -1.1683606067  -0.2951839072  4.7609229077
H  0.9508962906  -1.2097535307  3.8643211472
H  1.1683606067  0.2951839072  4.7609229077
H  1.0651143224  1.4281133079  2.3289382232
H  2.5634885650  0.7326056154  2.9404071559
H  0.6468056535  -0.8525905442  1.1420000937
H  2.2624167979  -1.3221739855  1.6607950074
H  1.5972329960  1.1275359165  -0.0776924894
H  3.2259052397  0.6462992032  0.4108160537
H  1.3149751400  -1.0256195519  -1.3298473758
H  2.9241123767  -1.5494016851  -0.8163016395
H  2.3405432421  0.9297700359  -2.5403713791
H  3.9455103798  0.4153915373  -2.0112839746
H  2.0624470509  -1.2386106052  -3.8258976485
H  3.5132445760  -0.3610003892  -4.3717210199
H  3.6736311406  -1.7607223283  -3.2827805459
H  -1.3149751400  1.0256195519  -1.3298473758
H  -2.9241123767  1.5494016851  -0.8163016395
H  -2.3405432421  -0.9297700359  -2.5403713791
H  -3.9455103798  -0.4153915373  -2.0112839746
H  -2.0624470509  1.2386106052  -3.8258976485
H  -3.5132445760  0.3610003892  -4.3717210199
H  -3.6736311406  1.7607223283  -3.2827805459