24
charge=0, multiplicity=1, basis=def2-QZVPPD, AUX_BASIS_CORR=rimp2-def2-QZVPPD, SCF_ALGORITHM=GDM, xc_grid=000099000590, mem_total=30000, num_basis=1212, num_pairs=576820, num_threads=8
C  -1.4045962250  0.0000000000  0.0000000000
C  1.4045962250  0.0000000000  0.0000000000
C  -0.7205251400  -1.2202670598  0.0000000000
C  0.7205251400  1.2202670598  0.0000000000
C  -0.7205251400  1.2202670598  0.0000000000
C  0.7205251400  -1.2202670598  0.0000000000
H  -2.4887772677  0.0000000000  0.0000000000
H  2.4887772677  0.0000000000  0.0000000000
C  -1.4053750676  -2.4671808392  0.0000000000
C  1.4053750676  2.4671808392  0.0000000000
C  -1.4053750676  2.4671808392  0.0000000000
C  1.4053750676  -2.4671808392  0.0000000000
C  -0.7096657306  -3.6505456556  0.0000000000
C  0.7096657306  3.6505456556  0.0000000000
C  -0.7096657306  3.6505456556  0.0000000000
C  0.7096657306  -3.6505456556  0.0000000000
H  -2.4879459701  -2.4662444214  0.0000000000
H  2.4879459701  2.4662444214  0.0000000000
H  -2.4879459701  2.4662444214  0.0000000000
H  2.4879459701  -2.4662444214  0.0000000000
H  -1.2445048584  -4.5899704815  0.0000000000
H  1.2445048584  4.5899704815  0.0000000000
H  -1.2445048584  4.5899704815  0.0000000000
H  1.2445048584  -4.5899704815  0.0000000000