44
charge=0, multiplicity=1, basis=def2-QZVPPD, AUX_BASIS_CORR=rimp2-def2-QZVPPD, SCF_ALGORITHM=GDM, xc_grid=000099000590, mem_total=60000, num_basis=1872, num_pairs=943042, num_threads=16
C  -8.3549734398  -0.1861122913  0.0000000000
C  -7.0526464243  0.6375243601  0.0000000000
C  -5.7924846583  -0.2475708184  0.0000000000
C  -4.4824656521  0.5601810956  0.0000000000
C  -3.2238061666  -0.3259213348  0.0000000000
C  -1.9137056733  0.4819398842  0.0000000000
C  -0.6550153436  -0.4039898377  0.0000000000
C  0.6550153436  0.4039898377  0.0000000000
C  1.9137056733  -0.4819398842  0.0000000000
C  3.2238061666  0.3259213348  0.0000000000
C  4.4824656521  -0.5601810956  0.0000000000
C  5.7924846583  0.2475708184  0.0000000000
C  7.0526464243  -0.6375243601  0.0000000000
C  8.3549734398  0.1861122913  0.0000000000
H  -9.2437127872  0.4621352655  0.0000000000
H  -8.4047507342  -0.8335436531  -0.8891538609
H  -8.4047507342  -0.8335436531  0.8891538609
H  -7.0293004506  1.2963529399  0.8834989556
H  -7.0293004506  1.2963529399  -0.8834989556
H  -5.8130969872  -0.9078022336  0.8837038272
H  -5.8130969872  -0.9078022336  -0.8837038272
H  -4.4621314882  1.2201759765  0.8836900868
H  -4.4621314882  1.2201759765  -0.8836900868
H  -3.2438419483  -0.9859413485  0.8836458076
H  -3.2438419483  -0.9859413485  -0.8836458076
H  -1.8935766204  1.1419659952  0.8836510617
H  -1.8935766204  1.1419659952  -0.8836510617
H  -0.6750144709  -1.0640211031  0.8836523747
H  -0.6750144709  -1.0640211031  -0.8836523747
H  0.6750144709  1.0640211031  0.8836523747
H  0.6750144709  1.0640211031  -0.8836523747
H  1.8935766204  -1.1419659952  0.8836510617
H  1.8935766204  -1.1419659952  -0.8836510617
H  3.2438419483  0.9859413485  0.8836458076
H  3.2438419483  0.9859413485  -0.8836458076
H  4.4621314882  -1.2201759765  0.8836900868
H  4.4621314882  -1.2201759765  -0.8836900868
H  5.8130969872  0.9078022336  0.8837038272
H  5.8130969872  0.9078022336  -0.8837038272
H  7.0293004506  -1.2963529399  0.8834989556
H  7.0293004506  -1.2963529399  -0.8834989556
H  8.4047507342  0.8335436531  0.8891538609
H  9.2437127872  -0.4621352655  0.0000000000
H  8.4047507342  0.8335436531  -0.8891538609