68
charge=0, multiplicity=1, basis=def2-QZVPPD, AUX_BASIS_CORR=rimp2-def2-QZVPPD, SCF_ALGORITHM=GDM, xc_grid=000099000590, mem_total=240000, num_basis=2904, num_pairs=1603506, num_threads=64
C  -6.1128984470  -3.5707057361  0.0000000000
C  -5.3483451011  -2.2351737157  0.0000000000
C  -3.8194024023  -2.4121407550  0.0000000000
C  -3.0557330355  -1.0760309992  0.0000000000
C  -1.5265530533  -1.2501920825  0.0000000000
C  -0.7646017125  0.0869540670  0.0000000000
C  0.7646017125  -0.0869540670  0.0000000000
C  1.5265530533  1.2501920825  0.0000000000
C  3.0557330355  1.0760309992  0.0000000000
C  3.8194024023  2.4121407550  0.0000000000
C  5.3483451011  2.2351737157  0.0000000000
C  6.1128984470  3.5707057361  0.0000000000
C  7.6419780847  3.3950792683  0.0000000000
C  8.4047175342  4.7317771932  0.0000000000
C  9.9338368993  4.5578614915  0.0000000000
C  10.6957462827  5.8958281926  0.0000000000
C  12.2250347357  5.7085977290  0.0000000000
C  -7.6419780847  -3.3950792683  0.0000000000
C  -8.4047175342  -4.7317771932  0.0000000000
C  -9.9338368993  -4.5578614915  0.0000000000
C  -10.6957462827  -5.8958281926  0.0000000000
C  -12.2250347357  -5.7085977290  0.0000000000
H  -5.8148555410  -4.1600276802  0.8835883051
H  -5.8148555410  -4.1600276802  -0.8835883051
H  -5.6460263169  -1.6456590113  -0.8836082327
H  -5.6460263169  -1.6456590113  0.8836082327
H  -3.5216017453  -3.0015596963  -0.8836139416
H  -3.5216017453  -3.0015596963  0.8836139416
H  -3.3544653027  -0.4870327424  -0.8835602569
H  -3.3544653027  -0.4870327424  0.8835602569
H  -1.2274684969  -1.8389546489  -0.8836083092
H  -1.2274684969  -1.8389546489  0.8836083092
H  -1.0635373347  0.6758267203  -0.8835911527
H  -1.0635373347  0.6758267203  0.8835911527
H  1.0635373347  -0.6758267203  -0.8835911527
H  1.0635373347  -0.6758267203  0.8835911527
H  1.2274684969  1.8389546489  -0.8836083092
H  1.2274684969  1.8389546489  0.8836083092
H  3.3544653027  0.4870327424  -0.8835602569
H  3.3544653027  0.4870327424  0.8835602569
H  3.5216017453  3.0015596963  -0.8836139416
H  3.5216017453  3.0015596963  0.8836139416
H  5.6460263169  1.6456590113  -0.8836082327
H  5.6460263169  1.6456590113  0.8836082327
H  5.8148555410  4.1600276802  -0.8835883051
H  5.8148555410  4.1600276802  0.8835883051
H  7.9404660777  2.8061362328  -0.8836411105
H  7.9404660777  2.8061362328  0.8836411105
H  8.1060338576  5.3206440474  -0.8836867942
H  8.1060338576  5.3206440474  0.8836867942
H  10.2334752556  3.9692225678  -0.8837422058
H  10.2334752556  3.9692225678  0.8837422058
H  10.3929616292  6.4813546828  -0.8834740533
H  10.3929616292  6.4813546828  0.8834740533
H  12.5470561991  5.1447820944  -0.8891996050
H  12.7504428559  6.6750682938  0.0000000000
H  12.5470561991  5.1447820944  0.8891996050
H  -7.9404660777  -2.8061362328  -0.8836411105
H  -7.9404660777  -2.8061362328  0.8836411105
H  -8.1060338576  -5.3206440474  -0.8836867942
H  -8.1060338576  -5.3206440474  0.8836867942
H  -10.2334752556  -3.9692225678  -0.8837422058
H  -10.2334752556  -3.9692225678  0.8837422058
H  -10.3929616292  -6.4813546828  -0.8834740533
H  -10.3929616292  -6.4813546828  0.8834740533
H  -12.5470561991  -5.1447820944  -0.8891996050
H  -12.7504428559  -6.6750682938  0.0000000000
H  -12.5470561991  -5.1447820944  0.8891996050