26
charge=0, multiplicity=1, basis=def2-QZVPPD, mem_total=30000, AUX_BASIS_CORR=rimp2-def2-QZVPPD, SCF_ALGORITHM=GDM, xc_grid=000099000590, num_basis=1098, num_pairs=451876, num_threads=8
C  -4.4604706285  -0.2682153956  0.0000000000
C  -3.1659217940  0.5366153822  0.0000000000
C  -1.9239521461  -0.3467240800  0.0000000000
C  -0.6204562202  0.4422503537  0.0000000000
C  0.6204562202  -0.4422503537  0.0000000000
C  1.9239521461  0.3467240800  0.0000000000
C  3.1659217940  -0.5366153822  0.0000000000
C  4.4604706285  0.2682153956  0.0000000000
H  -5.3369909828  0.3809557018  0.0000000000
H  -4.5172621049  -0.9088552755  -0.8819154043
H  -4.5172621049  -0.9088552755  0.8819154043
H  -3.1379297873  1.1888140797  0.8776630614
H  -3.1379297873  1.1888140797  -0.8776630614
H  -1.9475599711  -1.0002952996  0.8784708823
H  -1.9475599711  -1.0002952996  -0.8784708823
H  -0.5954391235  1.0954784838  0.8785608352
H  -0.5954391235  1.0954784838  -0.8785608352
H  0.5954391235  -1.0954784838  0.8785608352
H  0.5954391235  -1.0954784838  -0.8785608352
H  1.9475599711  1.0002952996  0.8784708823
H  1.9475599711  1.0002952996  -0.8784708823
H  3.1379297873  -1.1888140797  0.8776630614
H  3.1379297873  -1.1888140797  -0.8776630614
H  4.5172621049  0.9088552755  0.8819154043
H  5.3369909828  -0.3809557018  0.0000000000
H  4.5172621049  0.9088552755  -0.8819154043