7
charge=-1, multiplicity=1, basis=def2-QZVPPD, AUX_BASIS_CORR=rimp2-def2-QZVPPD, SCF_ALGORITHM=GDM, xc_grid=000099000590, mem_total=3750, num_basis=357, num_pairs=63529, num_threads=1
C  0.2540670720  -1.0879894040  -0.9835575980
C  0.4961517380  -0.5485387060  0.4548007000
O  0.1177351040  0.6370854140  0.6507824770
O  1.0283283220  -1.3313125100  1.2658092420
H  0.7022037550  -0.4119869330  -1.7145951040
H  -0.8195044290  -1.1142350720  -1.1847643450
H  0.6668226810  -2.0883565040  -1.1071044660