9
charge=0, multiplicity=1, basis=def2-QZVPPD, AUX_BASIS_CORR=rimp2-def2-QZVPPD, SCF_ALGORITHM=GDM, xc_grid=000099000590, mem_total=3750, num_basis=390, num_pairs=75377, num_threads=1
H  -0.6982636450  1.9739670510  0.0003989270
H  -1.8932335440  1.0112597450  -0.8969337810
H  -1.8986285650  1.0081026560  0.8875387740
H  -0.1772440230  -2.0788852450  -0.0073945680
H  -1.5784165580  -1.4464612240  -0.9001881950
H  -1.5817159810  -1.4513325270  0.8841955810
C  -1.2723330590  1.0514939300  -0.0027399980
O  -0.3405444650  -0.0399958950  -0.0019228510
C  -0.9660803000  -1.3315875280  -0.0065447930