6
charge=0, multiplicity=1, basis=def2-QZVPPD, AUX_BASIS_CORR=rimp2-def2-QZVPPD, SCF_ALGORITHM=GDM, xc_grid=000099000590, mem_total=3750, num_basis=258, num_pairs=33789, num_threads=1
H  0.0473417900  0.8090827920  -0.7526521710
H  -0.3721775460  2.5655752440  -0.3502225770
H  0.0945972180  3.2518341160  -2.6617732420
H  0.5174008390  1.5101077300  -3.0873502560
C  -0.0523945210  1.8404824520  -1.0900131790
C  0.1971091730  2.2223069240  -2.3362418580