10
charge=0, multiplicity=1, basis=def2-QZVPPD, AUX_BASIS_CORR=rimp2-def2-QZVPPD, SCF_ALGORITHM=GDM, xc_grid=000099000590, mem_total=3750, num_basis=450, num_pairs=94338, num_threads=1
H  -1.8823934560  1.2026975560  1.6708616770
H  -1.3077657510  0.3703563690  3.1451589220
H  -2.0554340810  -0.5472817780  1.8052034290
H  2.5871104220  -0.9848807610  2.0041624250
H  2.1029545110  -0.1713768450  0.4834188530
H  2.7589602790  0.7528152270  1.8706549550
C  -1.4192061480  0.2985574760  2.0663734540
N  -0.1218503200  0.1198021990  1.4090842260
N  0.8335575920  0.0845911720  2.1811535780
C  2.1380577760  -0.0912081840  1.5719048430