6
charge=-1, multiplicity=1, basis=def2-QZVPPD, AUX_BASIS_CORR=rimp2-def2-QZVPPD, SCF_ALGORITHM=GDM, xc_grid=000099000590, mem_total=3750, num_basis=318, num_pairs=41512, num_threads=1
C  -0.0000030570  0.0000120440  1.4831990610
H  -0.0000030570  0.0000120440  0.3861915530
C  0.0000098500  -0.0000890190  2.6852322890
H  0.0000257620  -0.0001945410  3.7453435550
C  -0.0000120540  0.0001116180  -3.6785160140
N  0.0000125080  -0.0000630080  -2.5097052180