3
charge=-1, multiplicity=1, basis=def2-QZVPPD, AUX_BASIS_CORR=rimp2-def2-QZVPPD, SCF_ALGORITHM=GDM, xc_grid=000099000590, mem_total=3750, num_basis=195, num_pairs=19423, num_threads=1
N  -2.0185134460  0.9599802760  -0.4637887390
O  -1.5131707140  0.1531489960  0.4116321960
O  -3.2391501240  1.0131354910  -0.4665293930