4
charge=-1, multiplicity=1, basis=def2-QZVPPD, AUX_BASIS_CORR=rimp2-def2-QZVPPD, SCF_ALGORITHM=GDM, xc_grid=000099000590, mem_total=3750, num_basis=261, num_pairs=34483, num_threads=1
N  0.5487048830  -0.4156476890  0.4691334180
O  -0.2986181930  0.4068881080  0.9047306970
O  0.6255979410  -0.6376604020  -0.7646482170
O  1.3121257400  -1.0101010400  1.2657005830