6
charge=0, multiplicity=1, basis=def2-QZVPPD, AUX_BASIS_CORR=rimp2-def2-QZVPPD, SCF_ALGORITHM=GDM, xc_grid=000099000590, mem_total=3750, num_basis=288, num_pairs=41906, num_threads=1
H  -1.0273311720  -0.0000003250  -2.8513929520
H  0.5136627880  0.8896930200  -2.8513938980
H  0.5136628520  -0.8896936520  -2.8513944480
C  0.0000001450  -0.0000006690  0.0797587130
N  -0.0000005970  -0.0000007540  -1.0717994120
C  -0.0000015370  -0.0000004640  -2.4967099060