5
charge=1, multiplicity=1, basis=def2-QZVPPD, AUX_BASIS_CORR=rimp2-def2-QZVPPD, SCF_ALGORITHM=GDM, xc_grid=000099000590, mem_total=3750, num_basis=195, num_pairs=19452, num_threads=1
N  -0.0051567170  0.0274015050  2.6696447320
H  -0.0030192970  0.0575135140  1.5941493720
H  0.8229440250  0.4904111350  3.0409765430
H  -0.0036771880  -0.9460258930  2.9728230750
H  -0.8368428380  0.4867760670  3.0374708320