14
charge=-1, multiplicity=1, basis=def2-QZVPPD, AUX_BASIS_CORR=rimp2-def2-QZVPPD, SCF_ALGORITHM=GDM, xc_grid=000099000590, mem_total=7500, num_basis=738, num_pairs=243851, num_threads=2
O  -0.4452121540  1.7450239680  -0.8444840650
C  -0.2456174490  1.0763211620  0.1983821330
O  -0.3385911450  1.4407250360  1.3898439960
C  0.1682555960  -0.3922606660  -0.0256011830
C  0.4156973090  -1.2329913880  1.0577553370
C  0.7884174350  -2.5578867310  0.8620422000
C  0.9197094670  -3.0630049260  -0.4281826030
C  0.6751486630  -2.2311949370  -1.5168202190
C  0.3027020250  -0.9072477350  -1.3134430150
H  0.3062707290  -0.8134526310  2.0476577640
H  0.9775827900  -3.1996824620  1.7139039170
H  1.2099905130  -4.0944348990  -0.5836745520
H  0.7758357350  -2.6176939750  -2.5237057470
H  0.1069725910  -0.2389368840  -2.1397283030