4
charge=0, multiplicity=1, basis=def2-QZVPPD, AUX_BASIS_CORR=rimp2-def2-QZVPPD, SCF_ALGORITHM=GDM, xc_grid=000099000590, mem_total=3750, num_basis=192, num_pairs=18798, num_threads=1
C  2.4464982860  -0.2244212470  -0.2091538660
H  1.3684948950  -0.1445288840  -0.3231155530
C  3.6388479190  -0.3143582670  -0.1007124710
H  4.6906953390  -0.3929440950  0.0042458480