7
charge=-1, multiplicity=1, basis=def2-QZVPPD, AUX_BASIS_CORR=rimp2-def2-QZVPPD, SCF_ALGORITHM=GDM, xc_grid=000099000590, mem_total=3750, num_basis=357, num_pairs=63571, num_threads=1
C  -0.3130906480  2.2808595210  -0.0002490070
C  0.0409780850  0.7645133760  0.0008481840
O  -0.9484173250  -0.0085009640  0.0029593980
O  1.2571357500  0.4734070560  -0.0006208610
H  -0.9192801450  2.5123872890  -0.8789039520
H  0.5819772440  2.9027273580  -0.0007227760
H  -0.9195477650  2.5138460760  0.8778221310