12
charge=-1, multiplicity=1, basis=def2-QZVPPD, AUX_BASIS_CORR=rimp2-def2-QZVPPD, SCF_ALGORITHM=GDM, xc_grid=000099000590, mem_total=3750, num_basis=552, num_pairs=115578, num_threads=1
C  -0.0263051990  -3.2410039820  -0.0026598730
H  -0.2621385630  -2.1743069660  -0.0001938350
H  0.5584684910  -3.4881321470  0.8832983150
H  0.5578167710  -3.4840098840  -0.8901730060
H  -0.9436723090  -3.8315629650  -0.0037048090
C  -0.6562300290  3.3637625220  0.0013276100
C  -0.3021612960  1.8474163770  0.0024248000
O  -1.2915567060  1.0744020370  0.0045360140
O  0.9139963690  1.5563100570  0.0009557560
H  -1.2624195260  3.5952902900  -0.8773273360
H  0.2388378630  3.9856303590  0.0008538400
H  -1.2626871460  3.5967490770  0.8793987480