6
charge=0, multiplicity=1, basis=def2-QZVPPD, AUX_BASIS_CORR=rimp2-def2-QZVPPD, SCF_ALGORITHM=GDM, xc_grid=000099000590, mem_total=3750, num_basis=288, num_pairs=41696, num_threads=1
H  -0.0010581980  -1.0017251910  -4.9490187520
H  0.8873944270  0.5333704040  -4.9231362320
H  -0.8868046400  0.5349326730  -4.9230051180
C  -0.0001344230  0.0160998900  -4.5628947180
C  -0.0000565640  -0.0082207570  -3.1138401540
N  -0.0000331110  -0.0271165870  -1.9677144770