12
charge=1, multiplicity=1, basis=def2-QZVPPD, AUX_BASIS_CORR=rimp2-def2-QZVPPD, SCF_ALGORITHM=GDM, xc_grid=000099000590, mem_total=3750, num_basis=546, num_pairs=117954, num_threads=1
N  0.1116208550  -3.4349020610  0.0000000000
H  0.0825956150  -2.3847210380  0.0000000000
H  -0.3587576850  -3.7918140280  -0.8317495100
H  -0.3587576850  -3.7918140280  0.8317495100
H  1.0809162130  -3.7524972200  0.0000000000
H  1.0720819820  2.6790390980  -0.8935791860
H  1.0720819820  2.6790390980  0.8935791860
H  -0.1230778120  3.6408919770  0.0000000000
C  0.4521618740  2.7238771060  0.0000000000
N  -0.5243400920  1.6159961430  0.0000000000
N  -0.1745719150  0.4730753800  0.0000000000
N  0.0222487840  -0.6485672850  0.0000000000