5
charge=-1, multiplicity=1, basis=def2-QZVPPD, AUX_BASIS_CORR=rimp2-def2-QZVPPD, SCF_ALGORITHM=GDM, xc_grid=000099000590, mem_total=3750, num_basis=258, num_pairs=31503, num_threads=1
O  0.2203119700  -1.7151803080  -1.1828169550
H  0.1272399070  -0.8345080930  -0.7160636910
H  0.1376588520  -2.3382319560  -0.4581740700
C  -0.0746502730  0.6945960540  0.3787904320
N  -0.2067431390  1.5922630110  1.1109701510