6
charge=0, multiplicity=1, basis=def2-QZVPPD, AUX_BASIS_CORR=rimp2-def2-QZVPPD, SCF_ALGORITHM=GDM, xc_grid=000099000590, mem_total=3750, num_basis=288, num_pairs=41906, num_threads=1
H  4.9554509100  0.9406467500  0.3986994910
H  4.6888833880  0.0963367440  1.9399877860
H  4.9700013470  -0.8362802110  0.4531247590
C  1.9834163970  0.0273482810  0.4076161690
N  3.1185916610  0.0428668390  0.6141021950
C  4.5193234240  0.0620597770  0.8669311240