7
charge=0, multiplicity=1, basis=def2-QZVPPD, AUX_BASIS_CORR=rimp2-def2-QZVPPD, SCF_ALGORITHM=GDM, xc_grid=000099000590, mem_total=3750, num_basis=324, num_pairs=52717, num_threads=1
H  0.8769491720  0.1415701350  -2.8864030710
H  -0.8655197690  0.1437252640  -2.8896635310
H  0.0027690560  -1.2959303260  -2.2701716740
H  0.0038869210  1.5163553360  -0.9630779680
C  0.0042339790  -0.2122876780  -2.3305816320
C  0.0024893550  0.4157074790  -0.9933229120
O  -0.0003714030  -0.2140548660  0.0534367120