13
charge=0, multiplicity=1, basis=def2-QZVPPD, AUX_BASIS_CORR=rimp2-def2-QZVPPD, SCF_ALGORITHM=GDM, xc_grid=000099000590, mem_total=7500, num_basis=642, num_pairs=191835, num_threads=2
H  0.8185649060  -1.8849230800  0.5974374210
H  4.0400276180  -0.1689279190  -1.6586107380
H  2.5571929910  -2.0855439840  -1.1599375010
H  2.0140970970  2.1632833290  1.3116722530
H  0.4351431050  0.9560997260  2.5759861810
H  3.7755333260  1.9470680600  -0.4051689810
C  3.2706697530  -0.0775943440  -0.9069039580
C  2.4344648960  -1.1523887020  -0.6298876980
C  1.4507568800  -1.0453112460  0.3462221390
C  1.3111127190  0.1524942590  1.0305419230
C  2.1355119160  1.2356358390  0.7678629360
C  3.1232546580  1.1106539730  -0.2020082260
O  0.2731602850  0.2345675530  1.9595972370