6
charge=0, multiplicity=1, basis=def2-QZVPPD, AUX_BASIS_CORR=rimp2-def2-QZVPPD, SCF_ALGORITHM=GDM, xc_grid=000099000590, mem_total=3750, num_basis=261, num_pairs=34660, num_threads=1
O  -0.4160659110  1.2633646640  -3.8376736560
H  -0.3878693820  1.1706027360  -2.8512716260
C  0.4160572070  0.2615131430  -4.3734179950
H  0.0063427640  -0.0721224240  -5.3333162120
H  1.4355499520  0.6322959400  -4.5626650900
H  0.4896461250  -0.5968905780  -3.7014514590