6
charge=-2, multiplicity=1, basis=def2-QZVPPD, AUX_BASIS_CORR=rimp2-def2-QZVPPD, SCF_ALGORITHM=GDM, xc_grid=000099000590, mem_total=3750, num_basis=390, num_pairs=73805, num_threads=1
C  -0.4520300550  0.0120760300  -0.2680928540
O  0.5910821160  -0.0295350750  0.4755514210
O  -0.4441810140  0.1593830240  -1.5097152430
C  -1.8241606940  -0.1351153330  0.4600370830
O  -2.3690026120  0.9316639250  0.8497578060
O  -2.2695966920  -1.3067665780  0.5848187480