12
charge=1, multiplicity=1, basis=def2-QZVPPD, AUX_BASIS_CORR=rimp2-def2-QZVPPD, SCF_ALGORITHM=GDM, xc_grid=000099000590, mem_total=3750, num_basis=549, num_pairs=121038, num_threads=1
N  -0.1486945780  -3.4095675990  0.0000000000
H  -0.0879229260  -2.3324892110  0.0000000000
H  0.7890604820  -3.8078832080  0.0000000000
H  -0.6455530720  -3.7291736370  -0.8299166540
H  -0.6455530720  -3.7291736370  0.8299166540
H  -1.1559919840  2.4964292780  0.9001439930
H  -0.0590622430  3.5891078080  0.0000000000
H  -1.1559919840  2.4964292780  -0.9001439930
C  -0.5664685410  2.6340325030  0.0000000000
O  0.5326004070  1.6399866960  0.0000000000
C  0.2394689190  0.4178558720  0.0000000000
N  0.0336685680  -0.7179616900  0.0000000000