5
charge=1, multiplicity=1, basis=def2-QZVPPD, AUX_BASIS_CORR=rimp2-def2-QZVPPD, SCF_ALGORITHM=GDM, xc_grid=000099000590, mem_total=3750, num_basis=195, num_pairs=19452, num_threads=1
N  0.0000016550  0.0000014580  2.9210460250
H  0.0000014160  0.0000008060  1.8359401440
H  0.9584378070  0.0000011460  3.2674610250
H  -0.4792158400  -0.8300285620  3.2674618820
H  -0.4792159840  0.8300312780  3.2674618680