5
charge=0, multiplicity=1, basis=def2-QZVPPD, AUX_BASIS_CORR=rimp2-def2-QZVPPD, SCF_ALGORITHM=GDM, xc_grid=000099000590, mem_total=3750, num_basis=195, num_pairs=19452, num_threads=1
C  -0.0263051990  -3.2410039820  -0.0026598730
H  -0.2621385630  -2.1743069660  -0.0001938350
H  0.5584684910  -3.4881321470  0.8832983150
H  0.5578167710  -3.4840098840  -0.8901730060
H  -0.9436723090  -3.8315629650  -0.0037048090