6
charge=-1, multiplicity=1, basis=def2-QZVPPD, AUX_BASIS_CORR=rimp2-def2-QZVPPD, SCF_ALGORITHM=GDM, xc_grid=000099000590, mem_total=3750, num_basis=288, num_pairs=40134, num_threads=1
N  -1.1425822020  1.7181847380  -0.6955316650
H  -0.5871240630  0.8708394610  -0.5043895110
H  -0.6427318910  2.4718055080  -0.2360241050
H  -1.9985301710  1.5992169580  -0.1643616720
C  0.8413935800  -1.2609025990  0.5673720260
N  0.2604307420  -0.4022876810  0.0275096150