7
charge=-1, multiplicity=1, basis=def2-QZVPPD, AUX_BASIS_CORR=rimp2-def2-QZVPPD, SCF_ALGORITHM=GDM, xc_grid=000099000590, mem_total=3750, num_basis=357, num_pairs=63481, num_threads=1
C  0.4774672670  -1.8596899570  1.8891346560
C  0.2236178470  -0.7750131700  0.8044940640
O  -0.1583651280  0.3437692810  1.2207901440
O  0.4099343710  -1.1463059470  -0.3785595350
H  0.5712424400  -1.4174640030  2.8808505880
H  1.3708491770  -2.4373324550  1.6475459410
H  -0.3674723140  -2.5531345320  1.8955149480