3
charge=0, multiplicity=1, basis=def2-QZVPPD, AUX_BASIS_CORR=rimp2-def2-QZVPPD, SCF_ALGORITHM=GDM, xc_grid=000099000590, mem_total=3750, num_basis=132, num_pairs=9017, num_threads=1
O  -0.0308011250  -4.2727173860  -0.3333001510
H  0.2066006290  -3.5755892410  -0.9689558170
H  -0.2569675590  -3.6806921430  0.4047032330