4
charge=0, multiplicity=1, basis=def2-QZVPPD, AUX_BASIS_CORR=rimp2-def2-QZVPPD, SCF_ALGORITHM=GDM, xc_grid=000099000590, mem_total=3750, num_basis=192, num_pairs=18756, num_threads=1
C  2.4044346860  -0.2417185520  -0.7872545060
H  1.4004410980  -0.2636979260  -0.3353439380
C  3.5025846370  -0.2223354860  -1.2768424920
H  4.4685370310  -0.1998122890  -1.7129896380