6
charge=0, multiplicity=1, basis=def2-QZVPPD, AUX_BASIS_CORR=rimp2-def2-QZVPPD, SCF_ALGORITHM=GDM, xc_grid=000099000590, mem_total=3750, num_basis=288, num_pairs=41696, num_threads=1
H  4.2070056540  0.9642487910  -0.9550928910
H  4.3995287450  -0.3898590020  0.1748771340
H  4.1636758350  1.2557747900  0.7943777080
C  3.8916573920  0.5578618810  0.0043770790
C  2.4570635720  0.3528138090  0.0030900220
N  1.3218715910  0.1906589750  0.0022047370