7
charge=0, multiplicity=1, basis=def2-QZVPPD, AUX_BASIS_CORR=rimp2-def2-QZVPPD, SCF_ALGORITHM=GDM, xc_grid=000099000590, mem_total=3750, num_basis=357, num_pairs=63716, num_threads=1
H  3.3642858340  2.1691103300  0.1203911140
H  3.5047598920  1.0672107670  1.5163699300
H  3.9747165280  0.4792311930  -0.1010974060
C  3.3137927210  1.1382608880  0.4477039300
N  1.9161770350  0.6605218460  0.2409676500
O  1.7420051490  -0.5317113690  0.0411162530
O  1.0145628820  1.4818326350  0.3060932260