7
charge=0, multiplicity=1, basis=def2-QZVPPD, AUX_BASIS_CORR=rimp2-def2-QZVPPD, SCF_ALGORITHM=GDM, xc_grid=000099000590, mem_total=3750, num_basis=354, num_pairs=61454, num_threads=1
H  3.4873905390  2.4555734850  0.6722940120
H  4.0661932050  0.8336808020  1.1885664260
H  4.8894631690  1.6996545290  -0.1441324590
C  3.9485924840  1.5243556860  0.3599827940
O  3.0947322980  0.8929184460  -0.6664572410
C  1.9171568520  0.5751996240  -0.3434280780
N  0.8295335160  0.2628353370  -0.1044656450