7
charge=-1, multiplicity=1, basis=def2-QZVPPD, AUX_BASIS_CORR=rimp2-def2-QZVPPD, SCF_ALGORITHM=GDM, xc_grid=000099000590, mem_total=3750, num_basis=357, num_pairs=63571, num_threads=1
C  -0.1686564040  -1.8772972000  -2.3791916620
C  -0.0774223110  -0.8871015050  -1.1899529820
O  -0.1820823410  -1.4145898270  -0.0509658610
O  0.0880409270  0.3199707600  -1.4650659810
H  0.6130995560  -2.6335629330  -2.2846621270
H  -0.0671770660  -1.3640161600  -3.3345180180
H  -1.1264081200  -2.4003808500  -2.3446846510