5
charge=0, multiplicity=1, basis=def2-QZVPPD, mem_total=3750, AUX_BASIS_CORR=rimp2-def2-QZVPPD, SCF_ALGORITHM=GDM, xc_grid=000099000590, num_basis=195, num_pairs=19452, num_threads=1
C  -1.3190587170  1.4459862590  -1.7795013400
H  -0.7740399980  0.8508295930  -1.0427712880
H  -0.6160435080  2.0037782560  -2.3984975740
H  -1.9816236650  2.1476270140  -1.2723245810
H  -1.9138778770  0.7917350330  -2.4171908080