14
charge=-1, multiplicity=1, basis=def2-QZVPPD, AUX_BASIS_CORR=rimp2-def2-QZVPPD, SCF_ALGORITHM=GDM, xc_grid=000099000590, mem_total=7500, num_basis=738, num_pairs=243938, num_threads=2
O  0.6468357050  0.1915708360  -0.0778235190
C  -0.4268115870  -0.2534895220  -0.5965453880
O  -0.5464494800  -1.1189051910  -1.4701354230
C  -1.7037604410  0.3849935330  -0.0476235510
C  -2.9437928760  0.0122547620  -0.5614097840
C  -4.1138251840  0.5826016710  -0.0757311150
C  -4.0568796120  1.5358066530  0.9365145370
C  -2.8226308160  1.9120602120  1.4564839650
C  -1.6546752930  1.3400054520  0.9658084960
H  -2.9581123990  -0.7320451980  -1.3445104660
H  -5.0715623860  0.2851929380  -0.4837948750
H  -4.9670716500  1.9808482000  1.3175333170
H  -2.7722781250  2.6515632250  2.2455599820
H  -0.6852699400  1.6151477820  1.3539923720