14
charge=-1, multiplicity=1, basis=def2-QZVPPD, AUX_BASIS_CORR=rimp2-def2-QZVPPD, SCF_ALGORITHM=GDM, xc_grid=000099000590, mem_total=7500, num_basis=738, num_pairs=243907, num_threads=2
O  -1.2894662030  0.3426473270  -0.1933026520
C  -0.8295961190  -0.8167976610  -0.0179904840
O  0.3442253450  -1.2071790360  -0.1661128380
C  -1.8506098270  -1.8707893840  0.4344063940
C  -1.4518514780  -3.1864515210  0.6607692230
C  -2.3687683180  -4.1472652150  1.0699982960
C  -3.7036535090  -3.8024310880  1.2590089390
C  -4.1110692850  -2.4909546330  1.0353625990
C  -3.1890692560  -1.5345267530  0.6261549750
H  -0.4096460490  -3.4259710770  0.5063312370
H  -2.0453806680  -5.1662103260  1.2425126750
H  -4.4198005980  -4.5489989650  1.5777828510
H  -5.1484013950  -2.2162576720  1.1807795850
H  -3.4792957010  -0.5097013110  0.4458340830