7
charge=-1, multiplicity=1, basis=def2-QZVPPD, AUX_BASIS_CORR=rimp2-def2-QZVPPD, SCF_ALGORITHM=GDM, xc_grid=000099000590, mem_total=3750, num_basis=294, num_pairs=42369, num_threads=1
C  -0.9225768230  0.9534120810  -0.8446725620
H  -0.2572009710  0.2669600490  -0.2629268670
H  -0.3285557280  1.6520747260  -1.4396934540
H  -1.5545840660  1.5296991320  -0.1632186570
H  -1.5689623020  0.3840242250  -1.5177468400
O  0.6558311600  -0.6741420410  0.5409418030
H  0.4348721650  -0.5164802500  1.4653563920