14
charge=-1, multiplicity=1, basis=def2-QZVPPD, AUX_BASIS_CORR=rimp2-def2-QZVPPD, SCF_ALGORITHM=GDM, xc_grid=000099000590, mem_total=7500, num_basis=738, num_pairs=243879, num_threads=2
O  0.6312242250  -0.6296080010  -0.0391535870
C  -0.2746281240  0.1795391160  -0.3869639660
O  -0.9058338650  0.9699961340  0.3366975470
C  -0.6248592480  0.1736802790  -1.8796735360
C  -1.6099126760  1.0263365490  -2.3733694500
C  -1.9354942000  1.0295122310  -3.7242850570
C  -1.2762375660  0.1752148560  -4.6029863370
C  -0.2911429820  -0.6796953450  -4.1187632250
C  0.0302055000  -0.6783740420  -2.7663599420
H  -2.1051709120  1.6785994280  -1.6686112580
H  -2.7030753160  1.6971717270  -4.0951144330
H  -1.5280589400  0.1758097700  -5.6557721400
H  0.2253872690  -1.3467601750  -4.7975102060
H  0.7908640830  -1.3321797020  -2.3654380030