6
charge=-1, multiplicity=1, basis=def2-QZVPPD, AUX_BASIS_CORR=rimp2-def2-QZVPPD, SCF_ALGORITHM=GDM, xc_grid=000099000590, mem_total=3750, num_basis=288, num_pairs=34424, num_threads=1
N  -0.8282529570  1.8079143750  -1.2054896770
H  -0.4186481090  0.9527890090  -0.7961744580
H  -0.3714068400  2.5751281700  -0.7236708510
H  -1.7896974940  1.8202081230  -0.8815496660
C  0.7298466300  -1.5661898180  0.9316538140
N  1.0993775280  -2.4098841780  1.6494366520