3
charge=0, multiplicity=1, basis=def2-QZVPPD, AUX_BASIS_CORR=rimp2-def2-QZVPPD, SCF_ALGORITHM=GDM, xc_grid=000099000590, mem_total=3750, num_basis=132, num_pairs=9017, num_threads=1
O  0.1818185240  -2.0642982580  -1.2969396070
H  0.2617545680  -1.0949537270  -1.0681075130
H  -0.2287791880  -2.4178192000  -0.5053311550