5
charge=-1, multiplicity=1, basis=def2-QZVPPD, AUX_BASIS_CORR=rimp2-def2-QZVPPD, SCF_ALGORITHM=GDM, xc_grid=000099000590, mem_total=3750, num_basis=258, num_pairs=32086, num_threads=1
O  -0.1913753390  -1.3650377040  -1.4073610540
H  -0.1036096830  -0.5909282640  -0.7864523970
H  -0.1359439460  -2.1136836980  -0.8109344820
C  0.1928392220  1.3204576570  1.4274712900
N  0.0705837650  0.6222880250  0.4992368750