6
charge=0, multiplicity=1, basis=def2-QZVPPD, AUX_BASIS_CORR=rimp2-def2-QZVPPD, SCF_ALGORITHM=GDM, xc_grid=000099000590, mem_total=3750, num_basis=288, num_pairs=41906, num_threads=1
H  4.2612741850  1.4940871340  1.1236948710
H  4.6501615680  0.0298046150  0.1945908150
H  4.3351734160  1.5602794220  -0.6518430990
C  1.5593059170  0.3598080950  0.0781726340
N  2.6827375530  0.6227740700  0.1348465300
C  4.0671585450  0.9471741990  0.2046940730