7
charge=-1, multiplicity=1, basis=def2-QZVPPD, AUX_BASIS_CORR=rimp2-def2-QZVPPD, SCF_ALGORITHM=GDM, xc_grid=000099000590, mem_total=3750, num_basis=357, num_pairs=63549, num_threads=1
C  -0.3319885130  -0.0426715410  -2.6687168950
C  -0.1127866440  0.1511834580  -1.1503585560
O  -0.4209652650  -0.8507208350  -0.4440803910
O  0.3351510410  1.2483071380  -0.7679812940
H  -1.3863604160  -0.2512579530  -2.8597640120
H  0.2339196690  -0.9102223280  -3.0127938840
H  -0.0277409640  0.8400133710  -3.2289630670