4
charge=-1, multiplicity=1, basis=def2-QZVPPD, AUX_BASIS_CORR=rimp2-def2-QZVPPD, SCF_ALGORITHM=GDM, xc_grid=000099000590, mem_total=3750, num_basis=261, num_pairs=34484, num_threads=1
N  0.5915962450  -0.6961976550  0.8152781010
O  -0.6468928300  -0.4159961920  0.8085363000
O  1.3526062830  -0.1438059220  -0.0089353880
O  1.0280944960  -1.5183259190  1.6419605530