5
charge=1, multiplicity=1, basis=def2-QZVPPD, AUX_BASIS_CORR=rimp2-def2-QZVPPD, SCF_ALGORITHM=GDM, xc_grid=000099000590, mem_total=3750, num_basis=195, num_pairs=19452, num_threads=1
N  0.1116208550  -3.4349020610  0.0000000000
H  0.0825956150  -2.3847210380  0.0000000000
H  -0.3587576850  -3.7918140280  -0.8317495100
H  -0.3587576850  -3.7918140280  0.8317495100
H  1.0809162130  -3.7524972200  0.0000000000