3
charge=0, multiplicity=1, basis=def2-QZVPPD, AUX_BASIS_CORR=rimp2-def2-QZVPPD, SCF_ALGORITHM=GDM, xc_grid=000099000590, mem_total=3750, num_basis=132, num_pairs=9017, num_threads=1
O  -0.0787199600  -0.9241277440  -0.8110031910
H  0.0316895580  -0.0439938000  -0.0818424300
H  -0.2957730360  -1.6547975880  -0.2284778840