7
charge=0, multiplicity=1, basis=def2-QZVPPD, AUX_BASIS_CORR=rimp2-def2-QZVPPD, SCF_ALGORITHM=GDM, xc_grid=000099000590, mem_total=3750, num_basis=324, num_pairs=52717, num_threads=1
H  0.5845541800  -0.4944608510  4.2566159870
H  0.6648225530  1.2394696660  4.0900121140
H  1.8731683880  0.2253935350  3.2439231800
H  -1.1660299700  0.3069656150  2.6272136680
C  0.8352511320  0.3031009410  3.5524284510
C  -0.0902564470  0.2348664530  2.3967170040
O  0.2671181810  0.1070160500  1.2403004160