3
charge=-1, multiplicity=1, basis=def2-QZVPPD, AUX_BASIS_CORR=rimp2-def2-QZVPPD, SCF_ALGORITHM=GDM, xc_grid=000099000590, mem_total=3750, num_basis=195, num_pairs=19423, num_threads=1
N  2.6111357450  2.1015424440  0.3719353840
O  1.4581078500  2.5751748670  0.2104390340
O  2.7067477880  0.8498327980  0.3813515890