6
charge=0, multiplicity=1, basis=def2-QZVPPD, AUX_BASIS_CORR=rimp2-def2-QZVPPD, SCF_ALGORITHM=GDM, xc_grid=000099000590, mem_total=3750, num_basis=291, num_pairs=42719, num_threads=1
H  2.9758430540  2.0223958570  1.1422439410
H  3.1892549030  1.9302972240  -0.5939613910
H  3.9089639140  0.6358939560  0.4468208020
C  3.0797044810  1.3244359250  0.3083738420
N  1.8070055190  0.6245127520  0.1890586050
O  1.8718001540  -0.5760620530  0.2606884540