14
charge=-1, multiplicity=1, basis=def2-QZVPPD, AUX_BASIS_CORR=rimp2-def2-QZVPPD, SCF_ALGORITHM=GDM, xc_grid=000099000590, mem_total=7500, num_basis=738, num_pairs=243851, num_threads=2
O  0.6700607380  -0.8430993280  0.4707028760
C  0.6699829640  0.4061999120  0.3885563590
O  -0.1578235390  1.1530452050  -0.1811038940
C  1.8469901720  1.1207712960  1.0818401170
C  1.9507250950  2.5101456600  1.0561036250
C  3.0106801730  3.1579164430  1.6802221180
C  3.9872865910  2.4201803440  2.3426446720
C  3.8926299760  1.0320605530  2.3740002660
C  2.8298580960  0.3910880820  1.7476580510
H  1.1784782390  3.0573384530  0.5346671710
H  3.0781866680  4.2386063070  1.6519116720
H  4.8138850400  2.9220221630  2.8295774720
H  4.6492478780  0.4517083300  2.8877801780
H  2.7310297370  -0.6849444820  1.7559635870