4
charge=-1, multiplicity=1, basis=def2-QZVPPD, AUX_BASIS_CORR=rimp2-def2-QZVPPD, SCF_ALGORITHM=GDM, xc_grid=000099000590, mem_total=3750, num_basis=261, num_pairs=34483, num_threads=1
N  -1.2833559970  0.1141124450  0.0706087610
O  -0.4843808460  -0.0427166930  -0.8993504040
O  -0.8299421910  0.1839213510  1.2353057990
O  -2.5093815910  0.1969720690  -0.1452059420