4
charge=0, multiplicity=1, basis=def2-QZVPPD, AUX_BASIS_CORR=rimp2-def2-QZVPPD, SCF_ALGORITHM=GDM, xc_grid=000099000590, mem_total=3750, num_basis=192, num_pairs=18732, num_threads=1
C  3.2208188530  0.1693744300  -0.2306002820
H  2.0797444810  0.0960591100  -0.0334248810
C  4.4099741320  0.2460692410  -0.4390148710
H  5.4504340230  0.3147022980  -0.6338699020