3
charge=-1, multiplicity=1, basis=def2-QZVPPD, mem_total=3750, AUX_BASIS_CORR=rimp2-def2-QZVPPD, SCF_ALGORITHM=GDM, xc_grid=000099000590, num_basis=195, num_pairs=19423, num_threads=1
N  -0.0987555710  -1.3946952810  0.0000000000
O  -1.0541865090  -0.5771100470  0.0000000000
O  1.0555210770  -0.9042043370  0.0000000000