3
charge=-1, multiplicity=1, basis=def2-QZVPPD, AUX_BASIS_CORR=rimp2-def2-QZVPPD, SCF_ALGORITHM=GDM, xc_grid=000099000590, mem_total=3750, num_basis=195, num_pairs=19423, num_threads=1
N  -2.6089871390  -2.5582217700  0.8426480180
O  -1.4211418300  -2.4431401550  0.4219872480
O  -3.3177831720  -1.5351755480  0.7686746310