4
charge=0, multiplicity=1, basis=def2-QZVPPD, AUX_BASIS_CORR=rimp2-def2-QZVPPD, SCF_ALGORITHM=GDM, xc_grid=000099000590, mem_total=3750, num_basis=162, num_pairs=13492, num_threads=1
N  -1.3109183160  3.1855489600  0.2547642940
H  -0.9697647110  2.6462000900  -0.5526846810
H  -0.9182236950  2.5574460920  0.9685223900
H  -2.3064946900  2.9748712340  0.2761121730