6
charge=-2, multiplicity=1, basis=def2-QZVPPD, AUX_BASIS_CORR=rimp2-def2-QZVPPD, SCF_ALGORITHM=GDM, xc_grid=000099000590, mem_total=3750, num_basis=390, num_pairs=73805, num_threads=1
C  -0.0212276220  -0.1147815590  -0.0466623230
O  -0.1566876710  -0.2179260760  -1.3026081670
O  -0.0825931980  -1.0770506100  0.7759162460
C  0.2420803930  1.3106614820  0.5331633800
O  -0.7747250250  1.9832569430  0.8490043110
O  1.4477588020  1.6604636290  0.6331941920