12
charge=1, multiplicity=1, basis=def2-QZVPPD, AUX_BASIS_CORR=rimp2-def2-QZVPPD, SCF_ALGORITHM=GDM, xc_grid=000099000590, mem_total=3750, num_basis=546, num_pairs=120922, num_threads=1
N  0.1116208550  -3.4349020610  0.0000000000
H  0.0825956150  -2.3847210380  0.0000000000
H  -0.3587576850  -3.7918140280  -0.8317495100
H  -0.3587576850  -3.7918140280  0.8317495100
H  1.0809162130  -3.7524972200  0.0000000000
H  1.0841513480  2.3318083470  -0.8935791860
H  1.0841513480  2.3318083470  0.8935791860
H  -0.1110084460  3.2936612260  0.0000000000
C  0.4642312400  2.3766463550  0.0000000000
N  -0.5122707260  1.2687653920  0.0000000000
N  -0.1625025490  0.1258446290  0.0000000000
N  0.0343181500  -0.9957980360  0.0000000000