4
charge=1, multiplicity=1, basis=def2-QZVPPD, AUX_BASIS_CORR=rimp2-def2-QZVPPD, SCF_ALGORITHM=GDM, xc_grid=000099000590, mem_total=3750, num_basis=165, num_pairs=13987, num_threads=1
O  -1.5214833780  -1.7164884130  0.4950436600
H  -1.0623636000  -2.4473338370  0.9425231800
H  -0.9262198850  -0.8362095440  0.3715908330
H  -1.9464417140  -2.0270109220  -0.3223613880