5
charge=-1, multiplicity=1, basis=def2-QZVPPD, AUX_BASIS_CORR=rimp2-def2-QZVPPD, SCF_ALGORITHM=GDM, xc_grid=000099000590, mem_total=3750, num_basis=258, num_pairs=32758, num_threads=1
O  -0.1913753390  -1.3650377040  -1.4073610540
H  -0.1036096830  -0.5909282640  -0.7864523970
H  -0.1359439460  -2.1136836980  -0.8109344820
C  0.1580005320  1.0778143990  1.1703334360
N  0.0357450750  0.3796447670  0.2420990210