5
charge=0, multiplicity=1, basis=def2-QZVPPD, mem_total=3750, AUX_BASIS_CORR=rimp2-def2-QZVPPD, SCF_ALGORITHM=GDM, xc_grid=000099000590, num_basis=195, num_pairs=19452, num_threads=1
C  0.0842220550  2.6952476370  0.0000000000
H  -0.0921135730  1.6176642880  0.0000000000
H  0.6530807940  2.9737889640  0.8872095520
H  -0.8659016580  3.2308248930  0.0000000000
H  0.6530807940  2.9737889640  -0.8872095520