5
charge=1, multiplicity=1, basis=def2-QZVPPD, AUX_BASIS_CORR=rimp2-def2-QZVPPD, SCF_ALGORITHM=GDM, xc_grid=000099000590, mem_total=3750, num_basis=195, num_pairs=19452, num_threads=1
N  -0.1486945780  -3.4095675990  0.0000000000
H  -0.0879229260  -2.3324892110  0.0000000000
H  0.7890604820  -3.8078832080  0.0000000000
H  -0.6455530720  -3.7291736370  -0.8299166540
H  -0.6455530720  -3.7291736370  0.8299166540