9
charge=0, multiplicity=1, basis=def2-QZVPPD, AUX_BASIS_CORR=rimp2-def2-QZVPPD, SCF_ALGORITHM=GDM, xc_grid=000099000590, mem_total=3750, num_basis=450, num_pairs=99823, num_threads=1
H  3.2542239350  1.5759718410  2.1054391480
H  3.9827655450  1.1829334650  -0.4948141400
H  0.6533752220  0.7550599620  2.2333756820
H  1.7546401070  0.1609323210  -1.6971706480
C  3.0246004850  0.9763197050  -0.0533353110
C  2.6413764490  1.1830799400  1.3144094890
C  1.3579097600  0.7892146890  1.4237774090
O  0.8982539180  0.3413853180  0.2000610560
C  1.9494492270  0.4700769730  -0.6874854990