6
charge=0, multiplicity=1, basis=def2-QZVPPD, AUX_BASIS_CORR=rimp2-def2-QZVPPD, SCF_ALGORITHM=GDM, xc_grid=000099000590, mem_total=3750, num_basis=288, num_pairs=41906, num_threads=1
H  1.0106007820  0.5504618310  4.2850734110
H  -0.5587483910  -0.2781227350  4.3936338300
H  0.9302550570  -1.2212992170  4.1602550340
C  0.1440178480  -0.0973243110  1.3698967570
N  0.2683334740  -0.1832573000  2.5137398920
C  0.4221097450  -0.2896206470  3.9255667300