12
charge=0, multiplicity=1, basis=def2-QZVPPD, AUX_BASIS_CORR=rimp2-def2-QZVPPD, SCF_ALGORITHM=GDM, xc_grid=000099000590, mem_total=3750, num_basis=549, num_pairs=141192, num_threads=1
C  1.8579005120  1.6468784350  1.3343135120
H  1.5235739630  2.3418300400  0.5652974830
H  2.7669537680  2.0363932520  1.7844566560
H  1.0852925840  1.5911484800  2.0998660050
C  2.0372017320  0.2854497910  0.7195004990
O  1.0970627630  -0.3079187750  0.1614870910
N  3.2440062980  -0.2726132750  0.7902143500
H  3.9802569090  0.2343583260  1.2482749720
C  3.5399885690  -1.5858751470  0.2321500460
H  2.9191686780  -2.3469380760  0.6996461660
H  3.3539521160  -1.5946654990  -0.8395069620
H  4.5847654050  -1.8121459930  0.4166985190