3
charge=-1, multiplicity=1, basis=def2-QZVPPD, AUX_BASIS_CORR=rimp2-def2-QZVPPD, SCF_ALGORITHM=GDM, xc_grid=000099000590, mem_total=3750, num_basis=195, num_pairs=19423, num_threads=1
N  0.6904934130  -1.0777604930  -1.1399121220
O  -0.2877958290  -0.3304019670  -1.4120819970
O  0.8067747070  -1.4297443140  0.0551257790