6
charge=0, multiplicity=1, basis=def2-QZVPPD, AUX_BASIS_CORR=rimp2-def2-QZVPPD, SCF_ALGORITHM=GDM, xc_grid=000099000590, mem_total=3750, num_basis=258, num_pairs=33789, num_threads=1
H  -0.6169135250  1.9605578200  -0.3545684900
H  -0.9910477280  3.2636289290  -1.6462664990
H  -0.3677185130  1.6258632120  -3.3908215240
H  -0.0167055540  0.3833510940  -2.0341940780
C  -0.6679065190  2.2570089260  -1.3980526740
C  -0.3334113870  1.3780755390  -2.3340449920