5
charge=-1, multiplicity=1, basis=def2-QZVPPD, AUX_BASIS_CORR=rimp2-def2-QZVPPD, SCF_ALGORITHM=GDM, xc_grid=000099000590, mem_total=3750, num_basis=258, num_pairs=32226, num_threads=1
O  0.2203119700  -1.7151803080  -1.1828169550
H  0.1272399070  -0.8345080930  -0.7160636910
H  0.1376588520  -2.3382319560  -0.4581740700
C  -0.0342722370  0.3887752250  0.1598196070
N  -0.1663651030  1.2864421820  0.8919993260