3
charge=-1, multiplicity=1, basis=def2-QZVPPD, AUX_BASIS_CORR=rimp2-def2-QZVPPD, SCF_ALGORITHM=GDM, xc_grid=000099000590, mem_total=3750, num_basis=195, num_pairs=19424, num_threads=1
N  -3.3194294260  0.7971723540  1.0215037470
O  -2.0633892370  0.8838393860  0.8008517470
O  -3.8560256350  -0.2588153920  0.6798979500