6
charge=0, multiplicity=1, basis=def2-QZVPPD, AUX_BASIS_CORR=rimp2-def2-QZVPPD, SCF_ALGORITHM=GDM, xc_grid=000099000590, mem_total=3750, num_basis=258, num_pairs=33753, num_threads=1
H  0.0020272040  -0.0215014610  0.3973734890
H  0.0931197140  1.8599694070  0.1877616700
H  0.0912264320  1.6840020010  -2.2524528580
H  0.0063025050  -0.1507430100  -2.1153774800
C  0.0489384570  0.8765705620  -0.2797449210
C  0.0494265790  0.8088068820  -1.6087076320