9
charge=0, multiplicity=1, basis=def2-QZVPPD, AUX_BASIS_CORR=rimp2-def2-QZVPPD, SCF_ALGORITHM=GDM, xc_grid=000099000590, mem_total=3750, num_basis=420, num_pairs=86860, num_threads=1
H  4.1052556500  -0.1505033530  0.4188529750
H  2.9223281220  -1.3930202340  0.6065696260
H  2.2118288460  2.0975040160  -1.2050165920
H  2.0535915460  2.5059945990  0.4994262250
H  3.6280022990  2.0141994820  -0.1450536590
O  0.9758123740  0.0707944020  0.0740915380
C  2.1623222480  0.4258765820  0.0995308040
N  3.1424945280  -0.4339263210  0.3970454100
C  2.5567343940  1.8444741680  -0.2038406780