4
charge=-1, multiplicity=1, basis=def2-QZVPPD, AUX_BASIS_CORR=rimp2-def2-QZVPPD, SCF_ALGORITHM=GDM, xc_grid=000099000590, mem_total=3750, num_basis=261, num_pairs=34468, num_threads=1
O  2.5686200000  -0.2793800000  -0.6816000000
N  3.0518100000  -1.0620500000  0.2656100000
O  4.2459500000  -1.3788200000  0.2445100000
O  2.2476000000  -1.4677700000  1.1772600000