5
charge=-1, multiplicity=1, basis=def2-QZVPPD, AUX_BASIS_CORR=rimp2-def2-QZVPPD, SCF_ALGORITHM=GDM, xc_grid=000099000590, mem_total=3750, num_basis=343, num_pairs=58543, num_threads=1
O  -2.1162200000  -0.9914800000  3.1118600000
Cl  -3.0498500000  0.1853600000  2.8908000000
O  -2.5168300000  0.9560400000  1.7147300000
O  -4.3920200000  -0.3214400000  2.5917000000
O  -3.0423900000  1.0401700000  4.0810800000