33
charge=0, multiplicity=1, basis=def2-QZVPPD, AUX_BASIS_CORR=rimp2-def2-QZVPPD, SCF_ALGORITHM=GDM, xc_grid=000099000590, mem_total=120000, num_basis=1719, num_pairs=1102085, num_threads=32
C  2.6717119377  -2.3786431792  0.0000095558
C  3.3961061302  -1.1222850604  0.0000031974
C  2.7433852128  0.1302121994  0.0000122219
C  1.2599127077  -2.4417216595  0.0000194284
C  -0.0000023668  -3.4215721934  -0.0000018431
C  -0.7251583947  3.5017192850  -0.0000047856
C  -1.4838964625  2.3101481696  0.0000010245
C  -2.9615200186  1.7112835427  0.0000023783
C  0.7251623090  3.5017319021  -0.0000094076
C  1.4838916068  2.3101507962  -0.0000047693
C  0.6807982743  1.1982613972  0.0000195077
C  -0.6808022839  1.1982636873  0.0000072076
C  -1.3792336478  -0.0109894332  0.0000025724
C  -2.7433979781  0.1302120764  -0.0000003638
C  -3.3961156922  -1.1222845183  -0.0000072994
C  -2.6717072464  -2.3786357794  -0.0000093004
C  -1.2599124291  -2.4417179900  0.0000031347
C  -0.6984906307  -1.1904659780  0.0000154139
C  0.6984881710  -1.1904757471  0.0000368689
C  1.3792210428  -0.0109944425  0.0000374305
C  2.9615277958  1.7112805718  -0.0000072647
H  1.2010113267  4.4746298715  -0.0000158165
H  -1.2009766943  4.4746338203  -0.0000092796
H  4.4763596240  -1.1982847183  -0.0000093540
H  3.2801325706  -3.2742467469  -0.0000073803
H  -3.2801179832  -3.2742460672  -0.0000209221
H  -4.4763668474  -1.1983103553  -0.0000104565
H  -3.5230938434  2.0356411565  0.8768217207
H  -3.5231137653  2.0356471837  -0.8768030668
H  3.5230869949  2.0356371020  -0.8768325463
H  3.5231074036  2.0356582063  0.8767978625
H  0.0000072505  -4.0700969718  -0.8768631957
H  -0.0000040740  -4.0701391273  0.8768275264