30
charge=0, multiplicity=1, basis=def2-QZVPPD, AUX_BASIS_CORR=rimp2-def2-QZVPPD, SCF_ALGORITHM=GDM, xc_grid=000099000590, mem_total=60000, num_basis=1620, num_pairs=995863, num_threads=16
C  0.6398422613  0.5377450747  -1.2996248928
C  -0.5639345897  -0.0786726981  -1.3326806507
C  -1.1496662898  -0.4893673189  -0.1461379712
C  -0.5315028506  -0.2776492458  1.0383558946
C  0.6965646941  0.3626126674  1.0569556669
C  1.2836158399  0.7659099129  -0.0936680111
C  2.4944990682  1.3931055578  -0.1848924133
C  3.0306290029  1.5680240403  1.1272673592
N  2.4322614138  1.1603309922  2.3190830599
C  1.2389764308  0.5370479974  2.2888025130
C  -1.0200935985  -0.6463766317  2.2604989752
C  -2.2835578071  -1.2879988522  2.0871383349
N  -2.9309182360  -1.5092415282  0.8715990126
C  -2.3536965927  -1.1025050034  -0.2756403882
C  -1.2798517604  -0.3524642797  -2.4642593648
C  -0.5529381417  0.1074837048  -3.6033196893
N  0.6898734296  0.7399301396  -3.5812027799
C  1.3058602020  0.9629567747  -2.4032204883
C  -2.6087972595  -1.0771116222  -1.8762477975
C  0.1359829850  -0.1313483937  3.2741256894
C  2.6681555231  1.5968798093  -1.7858162919
H  3.9846902636  2.0529910248  1.2903782364
H  -2.8491575635  -1.6653141893  2.9294532482
H  -0.9392268659  -0.0119822750  -4.6076412305
H  -2.7368118656  -2.0814889810  -2.2774484921
H  -3.5058280585  -0.5080654593  -2.1188344474
H  -0.2541834374  0.5953381192  3.9856360255
H  0.5684042264  -0.9531656769  3.8443644564
H  2.7791401076  2.6467459643  -2.0548090140
H  3.5456694688  1.0676503757  -2.1562145492