38
charge=0, multiplicity=1, basis=def2-QZVPPD, AUX_BASIS_CORR=rimp2-def2-QZVPPD, SCF_ALGORITHM=GDM, xc_grid=000099000590, mem_total=120000, num_basis=2034, num_pairs=1427815, num_threads=32
C  1.6190973587  0.4906061508  -0.6594507925
C  2.3412227189  1.6364180823  -0.2322943742
C  1.4734121623  2.2979822638  0.8722944431
C  0.3121670006  1.4885738899  0.9898752620
C  0.4549925634  0.4618557910  0.0797444264
C  -2.3406198812  -1.6398236593  0.2315314951
C  -1.6185605593  -0.4939331237  0.6585894389
C  -0.4544736450  -0.4651488086  -0.0806404129
C  -0.3116178461  -1.4919079154  -0.9907328891
C  -1.4728282858  -2.3013474908  -0.8731015055
C  1.8821988605  -0.4965323524  -1.6282549097
C  0.8353568032  -1.5807290442  -1.8025719358
C  -0.8348076010  1.5773939547  1.8017001406
C  -1.8816121319  0.4931852907  1.6274381549
C  -1.4709611855  -3.3869188583  -1.7341485601
C  -0.3504953022  -3.5547241118  -2.5927014255
C  0.7669647258  -2.7126111691  -2.6467789606
C  3.1193128650  -0.2554358532  -2.2685600325
C  3.8872744489  0.8570335352  -1.9025079371
C  3.5392604167  1.8099138088  -0.9063368517
C  -3.5385556579  -1.8134253823  0.9057243115
C  -3.8865155452  -0.8605641986  1.9019277536
C  -3.1186044017  0.2519572762  2.2679131945
C  -0.7664042051  2.7092564680  2.6459424313
C  0.3510832714  3.5513285287  2.5919090569
C  1.4715813939  3.3835066699  1.7333877776
H  -2.2780306638  -4.1060012390  -1.7834034637
H  -0.3625881524  -4.4079421957  -3.2579597434
H  1.5610862105  -2.9534318134  -3.3414715874
H  3.4943872380  -0.9095393179  -3.0448561924
H  4.8250195759  1.0086584789  -2.4212137968
H  4.2159840790  2.6309509774  -0.7087609192
H  -4.2152293872  -2.6345292454  0.7082518884
H  -4.8241949046  -1.0122525469  2.4207359568
H  -3.4936405709  0.9059998131  3.0442784567
H  -1.5605428809  2.9501020230  3.3406050920
H  0.3631938316  4.4045334510  3.2571844428
H  2.2786872833  4.1025418726  1.7827125671