14
charge=0, multiplicity=1, basis=def2-QZVPPD, AUX_BASIS_CORR=rimp2-def2-QZVPPD, SCF_ALGORITHM=GDM, xc_grid=000099000590, mem_total=7500, num_basis=685, num_pairs=212957, num_threads=2
C  2.9429390273  0.1883471263  0.3181245368
C  1.8280534342  0.1168966736  -0.5281464528
C  2.0339524631  -0.0415905041  -1.9057454475
C  3.3212883466  -0.1218631517  -2.4152161740
C  4.4261291095  -0.0495868924  -1.5729433711
C  4.2243486388  0.1042714867  -0.2056100907
P  0.1846180798  0.2272529848  0.1271360028
H  -0.0334439109  0.3754954824  1.4833101856
H  -0.9023811630  0.1708225010  -0.7250282093
H  1.1897083524  -0.1053184186  -2.5795465412
H  3.4606518184  -0.2464313907  -3.4812482042
H  5.4273709153  -0.1134680114  -1.9757890106
H  5.0719382640  0.1653407421  0.4641364757
H  2.8075046247  0.3148303718  1.3842833005