33
charge=0, multiplicity=1, basis=def2-QZVPPD, AUX_BASIS_CORR=rimp2-def2-QZVPPD, SCF_ALGORITHM=GDM, xc_grid=000099000590, mem_total=120000, num_basis=1719, num_pairs=1126707, num_threads=32
C  -3.2032268239  1.0258096631  0.4621388875
C  -2.4917607958  2.2615306698  0.4595004358
C  -1.2087443724  2.3540217920  -0.0744254411
C  -2.6395242735  -0.1300353632  -0.0709997732
C  -2.8432501764  -1.6427433326  0.1900373272
C  3.2032276647  1.0258106811  0.4621319302
C  2.6395226250  -0.1300339198  -0.0710051935
C  2.8432468389  -1.6427380631  0.1900448500
C  2.4917647661  2.2615325249  0.4594915207
C  1.2087473464  2.3540223654  -0.0744321357
C  0.7162775495  1.2133671662  -0.7127000872
C  1.4074425569  0.0152228495  -0.7116762619
C  0.6913367827  -1.2252647183  -0.7111235683
C  1.4310162603  -2.2212964116  -0.0708501805
C  0.7132241760  -3.2913000595  0.4573509610
C  -0.7132278275  -3.2913051942  0.4573398033
C  -1.4310185180  -2.2212975346  -0.0708560687
C  -0.6913377588  -1.2252621418  -0.7111205083
C  -1.4074447240  0.0152243770  -0.7116697646
C  -0.7162778688  1.2133673422  -0.7126941479
C  0.0000025313  3.2885466162  0.1836163403
H  2.9268341651  3.0898241806  1.0051638265
H  4.1365305044  0.9847821142  1.0099571691
H  0.0000064409  3.6728921721  1.2039848412
H  -2.9268320164  3.0898219563  1.0051710281
H  -4.1365262545  0.9847811495  1.0099687574
H  -3.5920541558  -2.0744610898  -0.4798703012
H  -1.2174278558  -4.0810193593  1.0003789742
H  1.2174213312  -4.0810110647  1.0003976853
H  3.1778065434  -1.8356966674  1.2096890159
H  -3.1778123542  -1.8357115229  1.2096783569
H  -0.0000000401  4.1530722558  -0.4862315430
H  3.5920577328  -2.0744564332  -0.4798537354