9
charge=0, multiplicity=1, basis=def2-QZVPPD, AUX_BASIS_CORR=rimp2-def2-QZVPPD, SCF_ALGORITHM=GDM, xc_grid=000099000590, mem_total=3750, num_basis=390, num_pairs=75391, num_threads=1
C  -1.1094541655  -0.0879210194  -0.0840082193
O  0.0703218361  0.6092456761  0.2476564021
C  1.2388410779  -0.1366612891  -0.0059752087
H  -1.9485618802  0.5598358521  0.1621864010
H  -1.1482511258  -0.3331926805  -1.1542071621
H  -1.1984001858  -1.0215292252  0.4857922850
H  2.0861011144  0.4795404751  0.2887536039
H  1.3339690521  -0.3911603363  -1.0702807611
H  1.2544342767  -1.0681574528  0.5740826593