40
charge=1, multiplicity=1, basis=def2-QZVPPD, AUX_BASIS_CORR=rimp2-def2-QZVPPD, SCF_ALGORITHM=GDM, xc_grid=000099000590, mem_total=120000, num_basis=1950, num_pairs=1261563, num_threads=32
C  -4.7564502169  1.1761446123  0.2199846332
C  -5.4548169766  0.2703008882  1.0196101531
C  -4.7776457270  -0.6736619292  1.7865209597
C  -3.3845679244  -0.7420124459  1.7824390696
C  -2.7163706229  0.1628212256  0.9777497661
C  -3.3768598768  1.1105273271  0.2015044422
N  -1.3116759731  0.3234880256  0.8107742093
C  -2.3415237197  1.9200611595  -0.5176938205
C  -1.0360174906  1.3115395132  -0.0561791209
C  -0.3867486667  -0.2604922447  1.7719021680
C  0.2104526494  1.8053225384  -0.4451981636
C  1.4489515125  1.1844818810  -0.5493937587
C  2.7715471650  1.9170393717  -0.5308129117
N  1.6869731836  -0.1230426949  -0.7605601655
C  3.0839482718  -0.3881147106  -0.8227617685
C  0.6912020758  -1.0895230757  -1.1933402167
C  3.7767377392  0.8143426379  -0.7024539066
C  3.7207025212  -1.6053699573  -0.9824476684
C  5.1147426123  -1.5893703053  -1.0273401828
C  5.8236050626  -0.3961084703  -0.9231722077
C  5.1573609197  0.8204039835  -0.7632452860
H  -5.2878603112  1.9124559085  -0.3669776578
H  -6.5345719127  0.3061501090  1.0472387485
H  -5.3387349938  -1.3635151564  2.4002704613
H  -2.8643792735  -1.4699789093  2.3870624158
H  -2.3771228157  2.9833892623  -0.2632854679
H  -2.4216101407  1.8477805624  -1.6045742400
H  -0.5817865251  0.1745496731  2.7531832618
H  -0.5358478136  -1.3361695090  1.8293634427
H  0.6372515292  -0.0552947698  1.4903722688
H  0.2042547744  2.8477575399  -0.7394431316
H  2.8102880058  2.6596645566  -1.3322765128
H  2.8892948531  2.4639562921  0.4066293545
H  -0.1035577756  -0.5638525708  -1.7184818875
H  0.2598279706  -1.6459007354  -0.3640428299
H  1.1666604466  -1.7888790168  -1.8750497811
H  3.1764747026  -2.5349663164  -1.0633152883
H  5.6504362697  -2.5204468203  -1.1470581378
H  6.9033156479  -0.4121245465  -0.9668775750
H  5.7151208436  1.7436471168  -0.6866236672