27
charge=0, multiplicity=1, basis=def2-QZVPPD, AUX_BASIS_CORR=rimp2-def2-QZVPPD, SCF_ALGORITHM=GDM, xc_grid=000099000590, mem_total=60000, num_basis=1341, num_pairs=701158, num_threads=16
C  -0.3763933994  0.4440545740  2.0888574595
C  -1.5167991964  0.3387224222  1.1859799651
C  -1.4406244280  0.6615690253  -0.1812656291
C  0.9870494294  0.3331850241  -0.7095808483
C  1.5336456923  -0.0706424082  0.5225664512
C  0.9280927077  0.2677649236  1.8052508263
C  2.7033966613  -0.8445519743  0.5188975631
C  3.2904121720  -1.2573104244  -0.6656207359
C  2.7159641476  -0.8967807139  -1.8803239117
C  1.5753257271  -0.1041095531  -1.8929242791
C  -2.5497618099  0.4560174572  -0.9964285574
C  -3.7410797016  -0.0324285116  -0.4777473740
C  -3.8360757934  -0.3140869293  0.8811657858
C  -2.7360580626  -0.1228854197  1.7002180552
C  -0.1840532571  1.2794521796  -0.7302347796
H  -0.6324933783  0.5797600443  3.1338660887
H  1.6133150431  0.2701574845  2.6460282280
H  3.1402681753  -1.1371968452  1.4659430880
H  4.1896925613  -1.8579187101  -0.6437774090
H  3.1652663453  -1.2167164642  -2.8112922869
H  1.1437600489  0.2051729331  -2.8370592907
H  -2.4830451741  0.7076203558  -2.0476677240
H  -4.5949887529  -0.1764193755  -1.1261651614
H  -4.7634436659  -0.6823693018  1.2992140702
H  -2.8030676218  -0.3536528019  2.7560371650
H  0.0675894678  2.1546184755  -0.1216808000
H  -0.3598939375  1.6299745342  -1.7472559590