30
charge=0, multiplicity=1, basis=def2-QZVPPD, AUX_BASIS_CORR=rimp2-def2-QZVPPD, SCF_ALGORITHM=GDM, xc_grid=000099000590, mem_total=60000, num_basis=1590, num_pairs=978128, num_threads=16
C  1.3014943699  2.9678680685  -0.2605742422
C  2.4194281504  2.1562037239  -0.2656855934
C  -1.3014931413  2.9678650339  -0.2605927936
C  -0.0000018755  2.4721454568  0.1111685053
C  0.0000013286  1.2054766337  0.6584538402
C  2.3504236199  0.7640050585  0.1032145184
C  -2.4194289188  2.1561997578  -0.2657067111
C  3.2213454911  -0.3208829283  -0.2747617204
C  0.6909641526  -3.1687624784  -0.2571727608
C  -0.6909634335  -3.1687575979  -0.2571736255
C  1.4514219580  -1.9991949097  0.1047646690
C  0.7086381760  -0.9741158550  0.6554915870
C  -0.7086398535  -0.9741152306  0.6555016933
C  -1.4514226349  -1.9991973233  0.1047810469
C  -2.7932353563  -1.6350663841  -0.2748306793
C  -3.2213333114  -0.3208825297  -0.2747690858
C  -2.3504216572  0.7640070965  0.1032118938
C  -1.1470617992  0.3732005305  0.6560235753
C  2.7932247583  -1.6350603797  -0.2748677537
C  1.1470637693  0.3731980688  0.6560241908
H  -4.2058485561  -0.0987044305  -0.6678497010
H  -3.4580582386  -2.3959309854  -0.6650458503
H  -1.2082601518  -4.0417797960  -0.6355003220
H  1.2082575608  -4.0417859532  -0.6355009109
H  3.4580402308  -2.3959263273  -0.6650907164
H  4.2058605145  -0.0987039491  -0.6678424945
H  3.3472290184  2.5581298805  -0.6542888482
H  1.3952442406  3.9762319460  -0.6450259896
H  -1.3952376200  3.9762202707  -0.6450673153
H  -3.3472307910  2.5581175320  -0.6543184061