14
charge=0, multiplicity=1, basis=def2-QZVPPD, AUX_BASIS_CORR=rimp2-def2-QZVPPD, SCF_ALGORITHM=GDM, xc_grid=000099000590, mem_total=7500, num_basis=685, num_pairs=214352, num_threads=2
P  0.0791503645  0.2658640014  0.1821323409
H  0.0403184149  -0.9293715715  0.9469962419
C  1.7646753159  0.0666649894  -0.5186617037
H  -0.6316557617  -0.3062842685  -0.9016566439
C  1.9826281189  -0.0755927898  -1.8900507402
C  3.2743967903  -0.1181540300  -2.4015229819
C  4.3676525713  -0.0286711053  -1.5485893596
C  4.1611492151  0.1092660282  -0.1801979686
C  2.8710598909  0.1675925339  0.3290732563
H  1.1403048551  -0.1610767997  -2.5639795620
H  3.4253658146  -0.2307715600  -3.4671265238
H  5.3729090622  -0.0642325120  -1.9463810241
H  5.0059396378  0.1842372543  0.4914714933
H  2.7230547103  0.2975008296  1.3942981755