4
charge=0, multiplicity=1, basis=def2-QZVPPD, AUX_BASIS_CORR=rimp2-def2-QZVPPD, SCF_ALGORITHM=GDM, xc_grid=000099000590, mem_total=3750, num_basis=300, num_pairs=44632, num_threads=1
N  0.0767100330  -0.1870664727  0.4095716558
Cl  -0.1969623266  0.5994315693  -1.1601943741
Cl  -0.8540375079  0.7018684595  1.6299744047
Cl  1.7982898015  -0.0332335561  0.8136483136