42
charge=0, multiplicity=1, basis=def2-QZVPPD, mem_total=240000, AUX_BASIS_CORR=rimp2-def2-QZVPPD, SCF_ALGORITHM=GDM, xc_grid=000099000590, num_basis=2286, num_pairs=1791366, num_threads=64
C  -0.4341572896  -1.0166305167  -2.0610299611
C  -0.0283603405  0.2538731267  -2.3933811161
C  1.1455452903  0.8289033655  -1.8166099722
C  1.8923210341  0.0743053148  -0.9426648077
C  1.4949656974  -1.2487916169  -0.5813227805
C  0.3625886701  -1.7791505770  -1.1529122073
C  -0.5007655853  -2.5787016635  -0.3833558280
C  -0.1421535294  -2.9761010734  0.9180519404
C  1.0691798039  -2.4254019303  1.4928377557
C  1.8320441347  -1.5039713986  0.7967092463
C  0.9478750441  2.2408686039  -1.6107418680
C  1.6536945737  2.8546951755  -0.5911656181
C  2.4258913387  2.0745026882  0.3563020659
C  2.4717447792  0.6773981678  0.1880327309
C  -2.3584845347  0.9862115817  -2.5229931860
C  -2.7647192255  -0.3644988755  -2.1846030084
C  -1.8273005274  -1.3332290802  -1.8729280997
C  -1.1829016104  -3.6007035538  1.6523430236
C  -2.4692523362  -3.6410511987  1.1412842762
C  -2.8351731566  -3.0021555248  -0.0693644628
C  -1.8475819120  -2.4308809314  -0.8417593924
C  2.5565301871  -0.2660492358  1.2604991436
C  2.9205856188  0.2288045206  2.4948655228
C  3.1267409621  1.6227017824  2.6372514769
C  2.8521036543  2.5314706061  1.6294280103
C  -3.2007133075  2.1283258847  -2.4947419652
C  -2.6558528505  3.3922629474  -2.3413997271
C  -1.2749324912  3.6111335392  -2.1146446771
C  -0.9806582379  1.2765379019  -2.5507102559
C  -0.4122525925  2.5383737633  -2.1888630345
H  1.2349406895  -2.5870028181  2.5523322054
H  1.4610087408  3.8913468909  -0.3386891368
H  -3.8128104070  -0.5284770588  -1.9590624591
H  -0.9893169794  -3.9887595144  2.6453668589
H  -3.2488711368  -4.1027803620  1.7338694915
H  -3.8826431214  -2.9147944509  -0.3308153680
H  2.9860004656  -0.4063086099  3.3694497466
H  3.4256560078  2.0003868693  3.6069943559
H  2.8926755013  3.5930261691  1.8425513866
H  -4.2773407605  2.0122121392  -2.5252947420
H  -3.3233909087  4.2435706198  -2.3002994602
H  -0.9354593526  4.5965283327  -1.8208161031