33
charge=0, multiplicity=1, basis=def2-QZVPPD, AUX_BASIS_CORR=rimp2-def2-QZVPPD, SCF_ALGORITHM=GDM, xc_grid=000099000590, mem_total=120000, num_basis=1719, num_pairs=1126399, num_threads=32
C  -0.0592963228  3.3220967166  0.1978227676
N  -1.2098808277  2.4073824072  -0.1049647162
B  -0.6927012421  1.2313402504  -0.7317998083
N  0.7447440920  1.2383746328  -0.8473614361
B  1.2127650678  2.3565503800  -0.0796139985
N  -1.4461684625  0.0286862781  -0.8534988230
B  -2.6494144178  -0.1239418503  -0.0862996143
N  -3.2330317479  1.0724799502  0.4374686375
B  -2.4983747104  2.3304660506  0.5005461887
B  -0.7171167473  -1.2108299475  -0.7344907102
N  -1.4720269255  -2.2413763415  -0.0955913858
C  -2.8398045695  -1.7049812655  0.2072925561
B  1.4103571340  -0.0169033550  -0.7394689745
N  2.6872767792  -0.1616416108  -0.1137418704
B  3.2544124570  0.9856850788  0.5141673640
N  2.5348168236  2.2523426884  0.4560235218
N  0.7005552415  -1.2670249014  -0.8615531158
B  1.4365856470  -2.2321259775  -0.0944435744
C  2.9054929370  -1.6151843151  0.1861655585
B  -0.7616375230  -3.3158559291  0.5150687732
N  0.6944996359  -3.3300668542  0.4414125230
H  2.9206105728  3.0071747913  1.0001820147
H  4.2581964550  0.9168803587  1.1549492283
H  -0.1222562950  3.6838802293  1.2255564849
H  -2.9549390364  3.2382198702  1.1259009840
H  -4.0862536538  1.0268941135  0.9700998681
H  -3.5888817391  -2.1779209774  -0.4350203479
H  -1.3193756418  -4.1547026058  1.1532289520
H  1.1643062163  -4.0407843415  0.9780056546
H  3.2493859289  -1.7455673960  1.2136814159
H  -3.1204728402  -1.9336936003  1.2365800476
H  -0.0864005705  4.2045905042  -0.4489440170
H  3.6840342851  -2.0304460312  -0.4608251482