4
charge=0, multiplicity=1, basis=def2-QZVPPD, AUX_BASIS_CORR=rimp2-def2-QZVPPD, SCF_ALGORITHM=GDM, xc_grid=000099000590, mem_total=3750, num_basis=300, num_pairs=44629, num_threads=1
N  0.1670211101  -0.0486917511  0.3403863321
Cl  -0.7045211316  0.7651930954  -0.8550825167
Cl  1.4940988210  0.6960506418  1.0740921160
Cl  -0.2765987995  -1.6135519861  0.7936040685