33
charge=0, multiplicity=1, basis=def2-QZVPPD, AUX_BASIS_CORR=rimp2-def2-QZVPPD, SCF_ALGORITHM=GDM, xc_grid=000099000590, mem_total=120000, num_basis=1719, num_pairs=1099144, num_threads=32
C  2.9806680115  1.8019202300  -0.0000181200
B  2.7868486532  0.1288046475  0.0000111509
N  1.3968261963  -0.0233719583  0.0000342744
B  0.7156596051  1.2053351867  0.0000160269
N  1.5458960511  2.3386058775  -0.0000006570
B  0.6866205322  -1.2240086753  0.0000150711
N  1.2523304935  -2.5096693178  0.0000252404
B  2.6938852226  -2.4732251699  0.0000148604
N  3.4304590490  -1.1736529846  0.0000063306
N  -0.7190768475  -1.2009432922  -0.0000294016
B  -1.2834854622  -2.4800339532  -0.0000223517
C  0.0683148435  -3.4840117455  0.0000078711
N  -0.6788018653  1.2187240450  0.0000019343
B  -1.5027302372  2.3479636806  0.0000066076
N  -0.6968668374  3.5573431350  0.0000099765
B  0.7958644643  3.5688962423  0.0000013106
B  -1.4033630971  0.0145125600  -0.0000228599
N  -2.7996140328  0.1699979798  -0.0000234940
C  -3.0480911121  1.6839662178  0.0000062006
N  -2.7341922888  -2.3835430686  -0.0000274073
B  -3.4900142135  -1.0948345933  -0.0000167203
H  1.3267703660  4.6373777560  -0.0000017693
H  -1.1160499595  4.4733457204  0.0000180738
H  4.4331974103  -1.2711537778  -0.0000044200
H  3.3557674992  -3.4659206763  0.0000100177
H  -3.3213794536  -3.2020537152  -0.0000185420
H  -4.6806058377  -1.1685527819  0.0000006637
H  -3.6384083743  1.9602202875  0.8752038205
H  -3.6384358238  1.9602536770  -0.8751613632
H  3.5140640599  2.1769947299  -0.8750421420
H  3.5141021053  2.1770260626  0.8749694158
H  0.1269410272  -4.1331640728  -0.8752959856
H  0.1269038525  -4.1331492527  0.8753253871