27
charge=0, multiplicity=1, basis=def2-QZVPPD, AUX_BASIS_CORR=rimp2-def2-QZVPPD, SCF_ALGORITHM=GDM, xc_grid=000099000590, mem_total=30000, num_basis=1341, num_pairs=687141, num_threads=8
C  -0.7922180616  -2.0306353942  -0.0243795749
C  0.5617482059  -1.7642647522  -0.4871125585
C  1.1775929025  -0.5055470469  -0.5795809693
C  -0.7685871477  1.1311758440  0.3693634613
C  -1.8014080529  0.2184632386  0.6380083358
C  -1.7562620350  -1.2226038995  0.4355981416
C  -3.0114253236  0.7168858043  1.1568137449
C  -3.2181615121  2.0581877997  1.4114901025
C  -2.1966034564  2.9594344202  1.1395662939
C  -1.0004771662  2.4854572859  0.6253758190
C  2.4799452838  -0.4452276509  -1.0824641683
C  3.1895974043  -1.5733848754  -1.4610116256
C  2.5906792254  -2.8215124198  -1.3511171354
C  1.2961313771  -2.9001890155  -0.8774997892
C  0.6258833329  0.8444848236  -0.1578719390
H  -1.0558772587  -3.0814691289  -0.0706677321
H  -2.6793642869  -1.7185638716  0.7151149740
H  -3.8042730083  0.0102242652  1.3650916151
H  -4.1615457679  2.3976346653  1.8170927466
H  -2.3264676242  4.0161524210  1.3308758824
H  -0.2032225146  3.1894001766  0.4164903269
H  2.9548725331  0.5250053460  -1.1688419936
H  4.1980327870  -1.4769590614  -1.8404278886
H  3.1219389096  -3.7183977883  -1.6396829279
H  0.8187421123  -3.8678629779  -0.7940128365
H  1.3166178252  1.2222575477  0.6034074230
H  0.7731113171  1.5158542446  -1.0086177279