34
charge=0, multiplicity=1, basis=def2-QZVPPD, AUX_BASIS_CORR=rimp2-def2-QZVPPD, SCF_ALGORITHM=GDM, xc_grid=000099000590, mem_total=120000, num_basis=1752, num_pairs=1071487, num_threads=32
N  -2.4045523557  -0.2181397184  0.4124305573
C  -1.7619811350  -0.2487891220  -0.7931058626
C  -0.3999605611  0.0908285026  -0.6195315817
C  -0.2317013465  0.3046039874  0.8346192560
C  -1.5090413685  0.0825527947  1.3993637517
C  -1.8226996054  0.1283992387  2.7672335876
C  -0.8194057988  0.3942346488  3.6432565994
C  0.5010797319  0.6406769688  3.1806438998
C  0.8217487970  0.6224314846  1.7765038864
C  1.5039964015  0.9149710468  4.1351579663
C  2.7973900687  1.1801527917  3.7687340804
C  3.1204394721  1.1879511540  2.4059796538
C  2.1624468346  0.9222491090  1.4555689653
C  -2.3738519115  -0.5946172808  -2.0078715214
C  -1.6042372743  -0.6197162430  -3.1266717920
C  -0.2267543474  -0.2775252069  -3.0673889939
C  0.4008496728  0.1052202290  -1.8281693034
C  0.5198707832  -0.3117865746  -4.2653587421
C  1.8473413623  0.0262771144  -4.3005329554
C  2.4641579153  0.4310967276  -3.1104417524
C  1.7614659013  0.4718199306  -1.9287169665
H  2.2858037924  0.8231854280  -1.0661849175
H  -3.3556566814  -0.4993537227  0.5655412009
H  -2.0272169970  -0.8998229241  -4.0822868325
H  -3.4245832302  -0.8533708439  -2.0332532535
H  3.5040930014  0.7303045549  -3.1154464992
H  0.0092170818  -0.6135565530  -5.1711160425
H  2.4039474508  -0.0059186604  -5.2271478529
H  -1.0077447047  0.4243775557  4.7081448986
H  -2.8354014521  -0.0580200585  3.1006230704
H  2.4666203936  0.9508120135  0.4324816384
H  4.1312566345  1.4100239967  2.0904442883
H  3.5521493131  1.3885543537  4.5144195237
H  1.2218291611  0.9139212774  5.1804400453