3
charge=0, multiplicity=1, basis=def2-QZVPPD, AUX_BASIS_CORR=rimp2-def2-QZVPPD, SCF_ALGORITHM=GDM, xc_grid=000099000590, mem_total=3750, num_basis=211, num_pairs=22582, num_threads=1
O  -1.9650558497  0.0385443768  0.1879366409
S  -0.7803441907  0.8508305114  0.0971740326
O  0.4984000404  0.2056251118  -0.0421106735