9
charge=0, multiplicity=1, basis=def2-QZVPPD, AUX_BASIS_CORR=rimp2-def2-QZVPPD, SCF_ALGORITHM=GDM, xc_grid=000099000590, mem_total=3750, num_basis=403, num_pairs=73958, num_threads=1
S  0.0004495226  0.0872667430  -0.0331597593
C  1.8625508394  0.0853515010  -0.0347687751
C  -1.8659935708  0.0891856706  -0.0315460203
H  2.1773316735  -0.9029692990  0.2786945455
H  2.1718643860  0.3207084518  -1.0461397769
H  2.1805464362  0.8454561646  0.6685818228
H  -2.1669573620  -0.1632258210  -1.0411377507
H  -2.1767572422  -0.6563174132  0.6887242445
H  -2.1853873614  1.0856193171  0.2506510622