13
charge=0, multiplicity=1, basis=def2-QZVPPD, AUX_BASIS_CORR=rimp2-def2-QZVPPD, SCF_ALGORITHM=GDM, xc_grid=000099000590, mem_total=3750, num_basis=549, num_pairs=146108, num_threads=1
N  -0.0209051091  0.0213016960  -0.0022997538
C  0.0316008962  0.1145005324  1.4250613264
C  1.2231123411  -0.1352259844  -0.6964130134
C  -1.2545793087  0.0282285731  -0.7354381045
H  1.0434076177  -0.4551196722  -1.7235435120
H  1.8165481504  0.7922385984  -0.7310207459
H  1.8526542610  -0.8999957127  -0.2225684186
H  -1.2819534855  0.8127497295  -1.5033550367
H  -1.4612818242  -0.9274605121  -1.2421344637
H  -2.0823260055  0.2215686614  -0.0537984326
H  -0.9692519917  0.2595928222  1.8301963655
H  0.4549685715  -0.7913444922  1.8883414235
H  0.6480068866  0.9589657607  1.7669703656