9
charge=0, multiplicity=1, basis=def2-QZVPPD, AUX_BASIS_CORR=rimp2-def2-QZVPPD, SCF_ALGORITHM=GDM, xc_grid=000099000590, mem_total=3750, num_basis=403, num_pairs=79207, num_threads=1
C  -1.3119743630  -0.1070349727  -0.1014176590
S  0.0711591375  0.9441590471  0.4123004778
C  1.4403649877  -0.1659375207  -0.0068078268
H  -2.2275852599  0.4487260545  0.0916171156
H  -1.2561078300  -0.3408202208  -1.1655978234
H  -1.3321818484  -1.0328462506  0.4729386492
H  2.3637871281  0.3606312660  0.2280191487
H  1.4359945120  -0.4151184920  -1.0689104422
H  1.3955435358  -1.0817589108  0.5818583601