4
charge=0, multiplicity=1, basis=def2-QZVPPD, AUX_BASIS_CORR=rimp2-def2-QZVPPD, SCF_ALGORITHM=GDM, xc_grid=000099000590, mem_total=3750, num_basis=313, num_pairs=46950, num_threads=1
P  0.1675573468  -0.0511746088  0.3374339401
Cl  -0.8677885703  0.9210604352  -1.0784401945
Cl  1.7391697710  0.8368506690  1.2127676863
Cl  -0.3589385475  -1.9077364954  0.8812385681