3
charge=0, multiplicity=1, basis=def2-QZVPPD, AUX_BASIS_CORR=rimp2-def2-QZVPPD, SCF_ALGORITHM=GDM, xc_grid=000099000590, mem_total=3750, num_basis=132, num_pairs=9017, num_threads=1
O  0.0000013307  0.0000529100  -0.0000000167
H  0.9356602442  0.0000533846  0.0000000083
H  -0.9356624274  0.0000524898  0.0000000083