13
charge=0, multiplicity=1, basis=def2-QZVPPD, AUX_BASIS_CORR=rimp2-def2-QZVPPD, SCF_ALGORITHM=GDM, xc_grid=000099000590, mem_total=3750, num_basis=562, num_pairs=144525, num_threads=1
P  0.0092026628  0.0657347638  -0.0194155308
C  0.0308452325  0.1686608717  1.8031937038
C  1.5639494337  -0.2896819456  -0.9132203283
C  -1.5790952475  0.1892113812  -0.9181636933
H  1.3991620948  -1.0389166718  -1.6876826672
H  2.0346369171  0.5851930733  -1.3634510550
H  2.2548093980  -0.7222486637  -0.1878440480
H  -1.8015367819  1.1809709494  -1.3153234773
H  -1.5950198736  -0.5274910614  -1.7396037513
H  -2.3736753474  -0.0962332421  -0.2267981569
H  -0.9643315118  -0.0971023830  2.1640650673
H  0.7251004681  -0.5685360648  2.2060674439
H  0.2959535550  1.1504389932  2.1981744931