40
charge=1, multiplicity=1, basis=def2-QZVPPD, AUX_BASIS_CORR=rimp2-def2-QZVPPD, SCF_ALGORITHM=GDM, xc_grid=000099000590, mem_total=120000, num_basis=1950, num_pairs=1209862, num_threads=32
C  -4.6109459598  0.1833653789  -0.2729544410
C  -3.4365128027  0.9172314692  -0.2857229080
C  -3.4249421121  2.2958492559  -0.1132260665
C  -4.6080226091  2.9879074629  0.0620654605
C  -5.8035582387  2.2707603372  0.0666287931
C  -5.8005796734  0.8883119288  -0.0941246899
C  -2.0048191801  2.7476749329  -0.1617319850
C  -1.2115737882  1.4697683562  -0.4086940476
N  -2.0937972494  0.4573851906  -0.4696251736
C  -1.8328044053  -0.9371474450  -0.7383410157
C  0.1778001677  1.6356339809  -0.5079843593
C  1.4469787294  1.0476910660  -0.6120263490
N  1.9597276518  -0.1872983602  -0.7512840470
C  3.3908475221  -0.1638352292  -0.7665835805
C  3.8256664564  1.1512202617  -0.6517166510
C  2.6186739004  2.0197034315  -0.5444671776
C  5.1768327968  1.4422129223  -0.6444987536
C  6.0840581565  0.3883036929  -0.7421818305
C  5.6352722921  -0.9239666961  -0.8502598403
C  4.2742223604  -1.2250687843  -0.8669869943
C  1.2479440089  -1.4361307031  -0.9003116064
H  -4.6094111253  4.0609978034  0.1971354638
H  -6.7402385476  2.7924659146  0.2017830058
H  -6.7345827666  0.3447696004  -0.0826540729
H  -4.6359340467  -0.8888029079  -0.3967419940
H  -1.6781349718  3.2107373766  0.7725324554
H  -1.8091534596  3.4692049589  -0.9574828262
H  -1.2853263470  -1.3947386374  0.0820565174
H  -2.7767491263  -1.4546699801  -0.8530545682
H  -1.2758430970  -1.0454008334  -1.6645751787
H  0.3543357888  2.7006335642  -0.4170614844
H  2.5420232632  2.7500025663  -1.3531130468
H  2.5815303093  2.5796424525  0.3925225153
H  0.5975234172  -1.3973351054  -1.7694224791
H  0.6687634682  -1.6605529418  -0.0079630988
H  1.9631845232  -2.2343519852  -1.0518893363
H  3.9538068117  -2.2520775486  -0.9529783627
H  6.3514668787  -1.7295473666  -0.9246973592
H  7.1454600236  0.5909949231  -0.7332987906
H  5.5258849806  2.4624286965  -0.5600580967