36
charge=0, multiplicity=1, basis=def2-QZVPPD, AUX_BASIS_CORR=rimp2-def2-QZVPPD, SCF_ALGORITHM=GDM, xc_grid=000099000590, mem_total=120000, num_basis=1848, num_pairs=1216124, num_threads=32
C  2.7623929707  -0.4864662847  -2.0312811807
C  3.3519327020  -0.3685895513  -0.8120473037
C  2.5619030306  -0.2647282579  0.3615843774
C  1.1485217808  -0.3026338741  0.2734288813
C  0.5590482471  -0.7354205141  -0.9697874587
C  1.3630394254  -0.6922638455  -2.1356744567
C  0.7795266052  -0.8901719135  -3.4216751183
C  -0.5347054265  -1.1880854887  -3.5588347700
C  -1.3343649637  -1.4502354358  -2.4102985980
C  -0.7733251132  -1.2985329776  -1.1098250137
C  3.1977317275  -0.0960833683  1.6275033758
C  2.4751865081  0.0958459970  2.7582005197
C  1.0660544231  0.2920427995  2.6827092778
C  0.4051600123  0.1736636114  1.4270110952
C  0.3364681778  0.6938525787  3.8223001883
C  -0.9826247620  1.0608389439  3.7247901196
C  -1.6020539703  1.0748617903  2.4650166725
C  -0.9232067870  0.6490372481  1.3484976421
C  -1.5075173890  -1.8309779036  -0.0262008198
C  -2.7713539768  -2.3434738669  -0.1946495353
C  -3.3688837419  -2.3660515408  -1.4647060752
C  -2.6482540182  -1.9458594369  -2.5543650990
H  3.3542993964  -0.4807074406  -2.9375589180
H  4.4281276846  -0.2990385360  -0.7202281895
H  1.4153612556  -0.7861591769  -4.2912447397
H  -0.9769422673  -1.3068634086  -4.5394359266
H  4.2787686172  -0.1400103390  1.6642783293
H  2.9626808193  0.1839779558  3.7208134773
H  0.8497124460  0.7421927509  4.7742486188
H  -1.5295217596  1.3776225492  4.6027947211
H  -2.6174206110  1.4353855383  2.3674711405
H  -1.4153748913  0.6897136545  0.3904762503
H  -1.0661989603  -1.8473506889  0.9564704145
H  -3.3023166655  -2.7447576956  0.6583436567
H  -4.3710186586  -2.7548018650  -1.5872157122
H  -3.0648318677  -2.0227720070  -3.5509098431