30
charge=0, multiplicity=1, basis=def2-QZVPPD, AUX_BASIS_CORR=rimp2-def2-QZVPPD, SCF_ALGORITHM=GDM, xc_grid=000099000590, mem_total=60000, num_basis=1530, num_pairs=872643, num_threads=16
C  0.2548330000  -2.4646930000  0.4729560000
C  -0.0198100000  -1.2821580000  -0.2771630000
C  0.0000000000  0.0000000000  0.3968130000
C  0.0000000000  0.0000000000  1.8078920000
C  0.2240460000  -1.2077040000  2.5288900000
C  0.4104380000  -2.3853030000  1.8846430000
C  0.0198100000  1.2821580000  -0.2771630000
C  -0.2240460000  1.2077040000  2.5288900000
C  -0.4104380000  2.3853030000  1.8846430000
C  -0.2548330000  2.4646930000  0.4729560000
H  0.2651100000  -1.1575800000  3.6091880000
H  0.6217630000  -3.2923430000  2.4357100000
C  -0.2945910000  3.7163840000  -0.1758410000
C  0.3973160000  1.4580740000  -1.6292100000
C  0.0000000000  3.8352710000  -1.5107210000
C  0.3862810000  2.6949520000  -2.2303560000
H  -0.5337750000  4.5927460000  0.4128230000
H  -0.0245360000  4.8023000000  -1.9940880000
H  0.6971640000  2.7883040000  -3.2621560000
H  0.7560570000  0.6153360000  -2.1947770000
C  -0.3973160000  -1.4580740000  -1.6292100000
H  -0.7560570000  -0.6153360000  -2.1947770000
C  0.2945910000  -3.7163840000  -0.1758410000
H  0.5337750000  -4.5927460000  0.4128230000
C  0.0000000000  -3.8352710000  -1.5107210000
H  0.0245360000  -4.8023000000  -1.9940880000
C  -0.3862810000  -2.6949520000  -2.2303560000
H  -0.6971640000  -2.7883040000  -3.2621560000
H  -0.6217630000  3.2923430000  2.4357100000
H  -0.2651100000  1.1575800000  3.6091880000