13
charge=0, multiplicity=1, basis=def2-QZVPPD, AUX_BASIS_CORR=rimp2-def2-QZVPPD, SCF_ALGORITHM=GDM, xc_grid=000099000590, mem_total=3750, num_basis=549, num_pairs=147068, num_threads=1
N  0.3851338323  0.1848678518  -0.0379065309
C  0.1977150106  0.0944056040  1.3977281811
C  1.6351277813  -0.4327144693  -0.4409442830
C  0.3032824752  1.5620053350  -0.4890804834
H  -0.7855937742  0.4794072104  1.6739118171
H  0.2644892412  -0.9459529717  1.7188332831
H  0.9561259103  0.6706008886  1.9560752471
H  1.7518829741  -0.3609910691  -1.5226689189
H  2.5145981169  0.0387902624  0.0314876378
H  1.6324748390  -1.4881870260  -0.1641619661
H  0.4436106030  1.6088005041  -1.5695950956
H  -0.6790320593  1.9730087157  -0.2498554259
H  1.0661450497  2.2081441642  -0.0207994625