3
charge=0, multiplicity=1, basis=def2-QZVPPD, AUX_BASIS_CORR=rimp2-def2-QZVPPD, SCF_ALGORITHM=GDM, xc_grid=000099000590, mem_total=3750, num_basis=211, num_pairs=22251, num_threads=1
S  0.0000306433  0.0000042987  0.0000025869
O  1.4573111388  0.0000129457  -0.0000012935
O  -1.4573665611  -0.0000041404  -0.0000012934