4
charge=0, multiplicity=1, basis=AUG-PC-4, AUX_BASIS_CORR=rimp2-def2-QZVPPD, SCF_ALGORITHM=GDM, xc_grid=000099000590, mem_total=3750, num_basis=409, num_pairs=84487, num_threads=1
H  0.0000000000  0.0000000000  0.0000000000
B  1.1848000000  0.0000000000  0.0000000000
H  1.7772000000  1.0260000000  0.0000000000
H  1.7772000000  -1.0260000000  0.0000000000