5
charge=1, multiplicity=2, basis=AUG-PC-4, AUX_BASIS_CORR=rimp2-def2-QZVPPD, SCF_ALGORITHM=GDM, xc_grid=000099000590, mem_total=3750, num_basis=497, num_pairs=124693, num_threads=1
C  0.0000000000  0.0000000000  0.0000000000
H  1.0879000000  0.0000000000  0.0000000000
H  -0.3626000000  1.0257000000  0.0000000000
H  -0.3626000000  -0.5128000000  -0.8883000000
H  -0.3626000000  -0.5128000000  0.8883000000