3
charge=0, multiplicity=1, basis=AUG-PC-4, AUX_BASIS_CORR=rimp2-def2-QZVPPD, SCF_ALGORITHM=GDM, xc_grid=000099000590, mem_total=3750, num_basis=321, num_pairs=52429, num_threads=1
O  0.0000000000  0.0000000000  0.0000000000
H  0.9591000000  0.0000000000  0.0000000000
H  -0.2373000000  0.9293000000  0.0000000000