4
charge=1, multiplicity=2, basis=AUG-PC-4, AUX_BASIS_CORR=rimp2-def2-QZVPPD, SCF_ALGORITHM=GDM, xc_grid=000099000590, mem_total=3750, num_basis=466, num_pairs=109599, num_threads=1
C  0.0000000000  0.0000000000  -0.6030000000
O  0.0000000000  0.0000000000  0.6054000000
H  0.0000000000  0.9347000000  -1.1822000000
H  0.0000000000  -0.9347000000  -1.1822000000