4
charge=0, multiplicity=1, basis=AUG-PC-4, AUX_BASIS_CORR=rimp2-def2-QZVPPD, SCF_ALGORITHM=GDM, xc_grid=000099000590, mem_total=3750, num_basis=405, num_pairs=82794, num_threads=1
P  0.0000000000  0.0000000000  0.0000000000
H  0.7746000000  1.1826000000  0.0000000000
H  0.7746000000  -0.5913000000  1.0242000000
H  0.7746000000  -0.5913000000  -1.0242000000