4
charge=1, multiplicity=2, basis=AUG-PC-4, AUX_BASIS_CORR=rimp2-def2-QZVPPD, SCF_ALGORITHM=GDM, xc_grid=000099000590, mem_total=3750, num_basis=580, num_pairs=164832, num_threads=1
C  0.0000000000  0.0000000000  0.6903412500
C  0.0000000000  0.0000000000  -0.6903412500
N  0.0000000000  0.0000000000  1.8498657600
N  0.0000000000  0.0000000000  -1.8498657600