4
charge=1, multiplicity=2, basis=AUG-PC-4, AUX_BASIS_CORR=rimp2-def2-QZVPPD, SCF_ALGORITHM=GDM, xc_grid=000099000590, mem_total=3750, num_basis=466, num_pairs=108557, num_threads=1
C  0.0000000000  0.0000000000  0.6032143300
C  0.0000000000  0.0000000000  -0.6032143300
H  0.0000000000  0.0000000000  1.6611601500
H  0.0000000000  0.0000000000  -1.6611601500