3
charge=0, multiplicity=1, basis=AUG-PC-4, AUX_BASIS_CORR=rimp2-def2-QZVPPD, SCF_ALGORITHM=GDM, xc_grid=000099000590, mem_total=3750, num_basis=435, num_pairs=95417, num_threads=1
N  0.0000000000  0.0000000000  -1.2001784200
N  0.0000000000  0.0000000000  -0.0719990900
O  0.0000000000  0.0000000000  1.1137537200