5
charge=1, multiplicity=2, basis=AUG-PC-4, AUX_BASIS_CORR=rimp2-def2-QZVPPD, SCF_ALGORITHM=GDM, xc_grid=000099000590, mem_total=7500, num_basis=725, num_pairs=247335, num_threads=2
C  -0.0000000200  0.0000000000  0.0000000000
C  0.0000000000  0.0000000000  1.2733185600
C  0.0000000100  0.0000000000  -1.2733185600
O  0.0000000100  0.0000000000  2.4343597000
O  0.0000000000  0.0000000000  -2.4343597000