4
charge=1, multiplicity=2, basis=AUG-PC-4, AUX_BASIS_CORR=rimp2-def2-QZVPPD, SCF_ALGORITHM=GDM, xc_grid=000099000590, mem_total=3750, num_basis=462, num_pairs=107410, num_threads=1
S  0.0000000000  0.0000000000  -0.5182182500
C  0.0000000000  0.0000000000  1.0997184300
H  0.9186036000  0.0000000000  1.6728543300
H  -0.9186036000  0.0000000000  1.6728543300