3
charge=1, multiplicity=2, basis=AUG-PC-4, AUX_BASIS_CORR=rimp2-def2-QZVPPD, SCF_ALGORITHM=GDM, xc_grid=000099000590, mem_total=3750, num_basis=435, num_pairs=95406, num_threads=1
O  0.0000000000  0.0000000200  -0.4409696800
O  0.0000000000  1.0834239700  0.2204848500
O  0.0000000000  -1.0834239900  0.2204848300