6
charge=0, multiplicity=1, basis=AUG-PC-4, AUX_BASIS_CORR=rimp2-def2-QZVPPD, SCF_ALGORITHM=GDM, xc_grid=000099000590, mem_total=7500, num_basis=699, num_pairs=241110, num_threads=2
C  -1.2164150400  0.0000000000  0.0000000000
N  0.2044354000  0.0000000000  0.0000000000
C  1.3755322800  0.0000000000  0.0000000000
H  -1.5783593500  1.0249926400  0.0000000000
H  -1.5783593500  -0.5124963200  -0.8876696600
H  -1.5783593500  -0.5124963200  0.8876696600