3
charge=1, multiplicity=2, basis=AUG-PC-4, AUX_BASIS_CORR=rimp2-def2-QZVPPD, SCF_ALGORITHM=GDM, xc_grid=000099000590, mem_total=3750, num_basis=431, num_pairs=93069, num_threads=1
C  0.0000000000  0.0000000000  0.5279573700
O  0.0000000000  0.0000000000  1.6857273400
S  0.0000000000  0.0000000000  -1.0414885800