4
charge=0, multiplicity=1, basis=AUG-PC-4, AUX_BASIS_CORR=rimp2-def2-QZVPPD, SCF_ALGORITHM=GDM, xc_grid=000099000590, mem_total=3750, num_basis=523, num_pairs=134742, num_threads=1
C  0.0000000000  0.0000000000  -0.1733944300
C  0.0000000000  0.0000000000  -1.3723942400
F  0.0000000000  0.0000000000  1.1051056400
H  0.0000000000  0.0000000000  -2.4267852000