6
charge=0, multiplicity=1, basis=AUG-PC-4, AUX_BASIS_CORR=rimp2-def2-QZVPPD, SCF_ALGORITHM=GDM, xc_grid=000099000590, mem_total=7500, num_basis=756, num_pairs=278707, num_threads=2
C  0.0000000000  -0.6626733400  0.6401880800
C  0.0000000000  0.6626733400  0.6401880800
F  0.0000000000  -1.3793242900  -0.4864949800
F  0.0000000000  1.3793242900  -0.4864949800
H  0.0000000000  -1.2383590200  1.5482540300
H  0.0000000000  1.2383590200  1.5482540300