5
charge=0, multiplicity=1, basis=AUG-PC-4, AUX_BASIS_CORR=rimp2-def2-QZVPPD, SCF_ALGORITHM=GDM, xc_grid=000099000590, mem_total=7500, num_basis=725, num_pairs=259365, num_threads=2
F  0.0000000000  -1.3171828600  0.0000000000
C  0.0000000000  0.0000171400  0.0000000000
F  -0.6209387100  0.4390573500  1.0754974000
F  1.2418774200  0.4390573500  0.0000000000
F  -0.6209387100  0.4390573500  -1.0754974000