5
charge=0, multiplicity=1, basis=AUG-PC-4, AUX_BASIS_CORR=rimp2-def2-QZVPPD, SCF_ALGORITHM=GDM, xc_grid=000099000590, mem_total=7500, num_basis=721, num_pairs=249590, num_threads=2
Si  0.0000000000  0.0000000000  0.0000000000
F  -0.9040234500  -0.9040234500  0.9040234500
F  0.9040234500  0.9040234500  0.9040234500
F  0.9040234500  -0.9040234500  -0.9040234500
F  -0.9040234500  0.9040234500  -0.9040234500