6
charge=1, multiplicity=2, basis=AUG-PC-4, AUX_BASIS_CORR=rimp2-def2-QZVPPD, SCF_ALGORITHM=GDM, xc_grid=000099000590, mem_total=7500, num_basis=699, num_pairs=240075, num_threads=2
C  1.2906525500  0.0000000000  0.0000000000
C  -0.1656597000  0.0000000000  0.0000000000
N  -1.3229169000  0.0000000000  0.0000000000
H  1.6619894500  -0.5110450500  -0.8851559900
H  1.6619894500  1.0220901000  0.0000000000
H  1.6619894500  -0.5110450500  0.8851559900