6
charge=0, multiplicity=1, basis=AUG-PC-4, AUX_BASIS_CORR=rimp2-def2-QZVPPD, SCF_ALGORITHM=GDM, xc_grid=000099000590, mem_total=7500, num_basis=756, num_pairs=269033, num_threads=2
C  0.0000000000  0.0000000000  0.6853850300
C  0.0000000000  0.0000000000  -0.6853850300
C  0.0000000000  0.0000000000  1.8961862300
C  0.0000000000  0.0000000000  -1.8961862300
H  0.0000000000  0.0000000000  2.9568072500
H  0.0000000000  0.0000000000  -2.9568072500