5
charge=0, multiplicity=1, basis=AUG-PC-4, AUX_BASIS_CORR=rimp2-def2-QZVPPD, SCF_ALGORITHM=GDM, xc_grid=000099000590, mem_total=3750, num_basis=611, num_pairs=186350, num_threads=1
C  0.0989342500  0.4120392900  0.0000000000
O  -1.1336011500  -0.1211589300  0.0000000000
O  1.1220442000  -0.2143009100  0.0000000000
H  0.0290269800  1.4998719900  0.0000000000
H  -1.0236029300  -1.0819636100  0.0000000000