6
charge=0, multiplicity=1, basis=AUG-PC-4, AUX_BASIS_CORR=rimp2-def2-QZVPPD, SCF_ALGORITHM=GDM, xc_grid=000099000590, mem_total=7500, num_basis=642, num_pairs=204667, num_threads=2
C  -0.6666240500  0.0000000000  0.0000000000
C  0.6666240500  0.0000000000  0.0000000000
H  1.2291372800  0.9221513400  0.0000000000
H  1.2291372800  -0.9221513400  0.0000000000
H  -1.2291372800  0.9221513400  0.0000000000
H  -1.2291372800  -0.9221513400  0.0000000000