3
charge=1, multiplicity=2, basis=AUG-PC-4, AUX_BASIS_CORR=rimp2-def2-QZVPPD, SCF_ALGORITHM=GDM, xc_grid=000099000590, mem_total=3750, num_basis=378, num_pairs=72388, num_threads=1
C  0.0000000000  0.0000000000  0.5595932200
H  0.0000000000  0.0000000000  1.6199164700
N  0.0000000000  0.0000000000  -0.5961343400