5
charge=0, multiplicity=1, basis=AUG-PC-4, AUX_BASIS_CORR=rimp2-def2-QZVPPD, SCF_ALGORITHM=GDM, xc_grid=000099000590, mem_total=3750, num_basis=611, num_pairs=186513, num_threads=1
C  0.0000000000  0.0000000000  0.5569703800
H  -0.9089861800  0.0000000900  1.1529623500
H  0.9089861800  -0.0000000900  1.1529623500
F  0.0000000000  1.0988605300  -0.2370624100
F  0.0000000000  -1.0988605300  -0.2370624100