7
charge=0, multiplicity=1, basis=AUG-PC-4, AUX_BASIS_CORR=rimp2-def2-QZVPPD, SCF_ALGORITHM=GDM, xc_grid=000099000590, mem_total=15000, num_basis=787, num_pairs=298008, num_threads=4
C  -0.0000064400  -1.3031150100  0.0000000000
C  -0.0000020500  0.1558849900  0.0000000000
C  0.0000015800  1.3618849900  0.0000000000
H  0.0000047800  2.4178849900  0.0000000000
H  1.0464924900  -1.6579181600  0.0000000000
H  -0.5232075100  -1.6579134300  0.9063000000
H  -0.5232075100  -1.6579134300  -0.9063000000