16
charge=0, multiplicity=1, basis=def2-QZVPPD, AUX_BASIS_CORR=rimp2-def2-QZVPPD, SCF_ALGORITHM=GDM, xc_grid=000099000590, mem_total=7500, num_basis=771, num_pairs=265785, num_threads=2
C  0.1840908856  0.5151374585  0.1479804589
C  -0.0060601855  -0.3648321039  1.2132890078
C  -0.1766041673  -1.7292527300  0.9892258585
C  -0.1632067503  -2.2272100276  -0.3086483223
C  0.0205483416  -1.3554523550  -1.3806492669
C  0.1966254674  0.0039250890  -1.1535953969
C  0.3888248589  1.9934422604  0.3902127253
O  -0.4544077912  2.8254248984  -0.4097012941
H  -1.3693180195  2.5626595079  -0.2536174726
H  -0.0251249074  0.0200031197  2.2275772472
H  -0.3245658748  -2.3996172205  1.8276784321
H  -0.2983480460  -3.2874212421  -0.4866347144
H  0.0323809409  -1.7388755894  -2.3942540207
H  0.3322837288  0.6827887041  -1.9874923593
H  0.2569767019  2.2113414387  1.4570592555
H  1.4059048170  2.2879387918  0.1215698619