12
charge=0, multiplicity=1, basis=def2-QZVPPD, AUX_BASIS_CORR=rimp2-def2-QZVPPD, SCF_ALGORITHM=GDM, xc_grid=000099000590, mem_total=3750, num_basis=516, num_pairs=126872, num_threads=1
C  0.0000000000  -1.5900346486  -0.4031754661
C  0.0000000000  -0.6666354098  0.7792199774
C  0.0000000000  0.6666354098  0.7792199774
C  0.0000000000  1.5900346486  -0.4031754661
H  0.0000000000  -1.0618000806  -1.3565531667
H  -0.8774869113  -2.2445926923  -0.3832116152
H  0.8774869113  -2.2445926923  -0.3832116152
H  0.0000000000  -1.1630738354  1.7469318860
H  0.0000000000  1.1630738354  1.7469318860
H  0.0000000000  1.0618000806  -1.3565531667
H  -0.8774869113  2.2445926923  -0.3832116152
H  0.8774869113  2.2445926923  -0.3832116152