7
charge=0, multiplicity=1, basis=def2-QZVPPD, AUX_BASIS_CORR=rimp2-def2-QZVPPD, SCF_ALGORITHM=GDM, xc_grid=000099000590, mem_total=3750, num_basis=321, num_pairs=50708, num_threads=1
C  0.0000000000  0.0000000000  0.0000000000
C  0.0000000000  0.0000000000  -1.3011573559
C  0.0000000000  0.0000000000  1.3011573559
H  -0.6555093175  -0.6555093175  -1.8648328700
H  0.6555093175  0.6555093175  -1.8648328700
H  -0.6555093175  0.6555093175  1.8648328700
H  0.6555093175  -0.6555093175  1.8648328700