26
charge=0, multiplicity=1, basis=def2-QZVPPD, mem_total=30000, AUX_BASIS_CORR=rimp2-def2-QZVPPD, SCF_ALGORITHM=GDM, xc_grid=000099000590, num_basis=1098, num_pairs=450736, num_threads=8
C  -4.4917017212  -0.2656222797  0.0000000000
C  -3.1873645759  0.5332032794  0.0000000000
C  -1.9360533215  -0.3490682247  0.0000000000
C  -0.6252862706  0.4416396504  0.0000000000
C  0.6252862706  -0.4416396504  0.0000000000
C  1.9360533215  0.3490682247  0.0000000000
C  3.1873645759  -0.5332032794  0.0000000000
C  4.4917017212  0.2656222797  0.0000000000
H  -5.3638539561  0.3925786036  0.0000000000
H  -4.5613789833  -0.9084187204  -0.8820769815
H  -4.5613789833  -0.9084187204  0.8820769815
H  -3.1633046960  1.1919074312  0.8754192574
H  -3.1633046960  1.1919074312  -0.8754192574
H  -1.9608461224  -1.0087086922  0.8759835141
H  -1.9608461224  -1.0087086922  -0.8759835141
H  -0.6014833886  1.1010827272  0.8759847038
H  -0.6014833886  1.1010827272  -0.8759847038
H  0.6014833886  -1.1010827272  0.8759847038
H  0.6014833886  -1.1010827272  -0.8759847038
H  1.9608461224  1.0087086922  0.8759835141
H  1.9608461224  1.0087086922  -0.8759835141
H  3.1633046960  -1.1919074312  0.8754192574
H  3.1633046960  -1.1919074312  -0.8754192574
H  4.5613789833  0.9084187204  0.8820769815
H  5.3638539561  -0.3925786036  0.0000000000
H  4.5613789833  0.9084187204  -0.8820769815