12
charge=0, multiplicity=1, basis=def2-QZVPPD, AUX_BASIS_CORR=rimp2-def2-QZVPPD, SCF_ALGORITHM=GDM, xc_grid=000099000590, mem_total=3750, num_basis=516, num_pairs=123344, num_threads=1
C  -1.9584816393  -0.0898634389  0.0000000000
C  -0.5382922275  0.3905859983  0.0000000000
C  0.5382922275  -0.3905859983  0.0000000000
C  1.9584816393  0.0898634389  0.0000000000
H  -2.0121616595  -1.1805475175  0.0000000000
H  -2.5007540845  0.2760592230  -0.8780571727
H  -2.5007540845  0.2760592230  0.8780571727
H  -0.3987911617  1.4708677171  0.0000000000
H  0.3987911617  -1.4708677171  0.0000000000
H  2.0121616595  1.1805475175  0.0000000000
H  2.5007540845  -0.2760592230  0.8780571727
H  2.5007540845  -0.2760592230  -0.8780571727