13
charge=0, multiplicity=1, basis=def2-QZVPPD, AUX_BASIS_CORR=rimp2-def2-QZVPPD, SCF_ALGORITHM=GDM, xc_grid=000099000590, mem_total=3750, num_basis=582, num_pairs=166074, num_threads=1
O  0.0000000000  0.0000000000  1.4908906075
C  -1.1680205561  0.1348634717  0.6662640582
C  -0.7334071907  -0.2251610789  -0.7558183912
C  0.7334071907  0.2251610789  -0.7558183912
C  1.1680205561  -0.1348634717  0.6662640582
H  -1.9489822816  -0.5202869084  1.0586288846
H  -1.5288261594  1.1695739423  0.7183164559
H  -1.3383864849  0.2686376045  -1.5174961797
H  -0.7993857996  -1.3046101799  -0.9153401315
H  1.3383864849  -0.2686376045  -1.5174961797
H  0.7993857996  1.3046101799  -0.9153401315
H  1.5288261594  -1.1695739423  0.7183164559
H  1.9489822816  0.5202869084  1.0586288846