10
charge=0, multiplicity=1, basis=def2-QZVPPD, AUX_BASIS_CORR=rimp2-def2-QZVPPD, SCF_ALGORITHM=GDM, xc_grid=000099000590, mem_total=3750, num_basis=510, num_pairs=126431, num_threads=1
C  1.3201298730  0.0000000000  0.4313243010
C  0.6897231979  0.0000000000  -0.8120624697
C  -0.6897231979  0.0000000000  -0.8120624697
C  -1.3201298730  0.0000000000  0.4313243010
N  -0.6655529655  0.0000000000  1.5912513731
N  0.6655529655  0.0000000000  1.5912513731
H  -2.4007967256  0.0000000000  0.5174241633
H  -1.2674719301  0.0000000000  -1.7279373677
H  1.2674719301  0.0000000000  -1.7279373677
H  2.4007967256  0.0000000000  0.5174241633