12
charge=0, multiplicity=1, basis=def2-QZVPPD, AUX_BASIS_CORR=rimp2-def2-QZVPPD, SCF_ALGORITHM=GDM, xc_grid=000099000590, mem_total=3750, num_basis=516, num_pairs=126753, num_threads=1
C  -1.9873886474  0.0520683208  0.2513146627
C  -0.8560257081  0.1802438628  -0.4332869576
C  0.4068936750  -0.5912751826  -0.1819327779
C  1.5955742715  0.3124540851  0.1768217273
H  -2.0821551091  -0.6605042722  1.0647595436
H  -2.8620239744  0.6499661458  0.0239794505
H  -0.8097340702  0.9107636373  -1.2397654966
H  0.6600812427  -1.1656949860  -1.0812257473
H  0.2378251496  -1.3195728276  0.6166620395
H  1.7903388088  1.0414331893  -0.6142667260
H  2.5052535700  -0.2756161794  0.3186442452
H  1.4013607915  0.8657342067  1.0982960368