13
charge=0, multiplicity=1, basis=def2-QZVPPD, AUX_BASIS_CORR=rimp2-def2-QZVPPD, SCF_ALGORITHM=GDM, xc_grid=000099000590, mem_total=3750, num_basis=579, num_pairs=163744, num_threads=1
C  -1.1845545191  0.0541198476  0.6652547195
C  -1.1845545191  0.0541198476  -0.6652547195
C  0.2070082847  -0.0916379076  -1.2340560037
C  1.1168639895  0.1400171542  0.0000000000
C  0.2070082847  -0.0916379076  1.2340560037
H  -2.0703528963  0.1103623684  1.2867950229
H  -2.0703528963  0.1103623684  -1.2867950229
H  0.4126171025  0.6154963271  -2.0424728727
H  0.3432014752  -1.0942569574  -1.6586281273
H  1.9985619647  -0.5022907226  0.0000000000
H  1.4687351519  1.1741062120  0.0000000000
H  0.4126171025  0.6154963271  2.0424728727
H  0.3432014752  -1.0942569574  1.6586281273