7
charge=0, multiplicity=1, basis=def2-QZVPPD, AUX_BASIS_CORR=rimp2-def2-QZVPPD, SCF_ALGORITHM=GDM, xc_grid=000099000590, mem_total=3750, num_basis=324, num_pairs=52717, num_threads=1
C  0.5946464294  -0.2619694612  0.0000000000
C  -0.7918435295  0.3182119339  0.0000000000
O  -1.8090919366  -0.3284302256  0.0000000000
H  1.1411034708  0.0969315109  -0.8781121878
H  0.5611270768  -1.3505280053  0.0000000000
H  1.1411034708  0.0969315109  0.8781121878
H  -0.8370449818  1.4288527363  0.0000000000