12
charge=0, multiplicity=1, basis=def2-QZVPPD, AUX_BASIS_CORR=rimp2-def2-QZVPPD, SCF_ALGORITHM=GDM, xc_grid=000099000590, mem_total=3750, num_basis=516, num_pairs=129741, num_threads=1
N  0.6856284529  -0.1338338066  1.3569785027
C  -0.5132808898  0.2674973776  0.6112866653
C  -0.4840293627  -0.3308846066  -0.7996620050
N  0.6515431663  0.0625925280  -1.6300930182
H  0.6378459256  -1.1137111950  1.6160741727
H  0.7886983510  0.3996103115  2.2116901194
H  0.5846808770  1.0448771608  -1.8766122769
H  1.5054264359  -0.0455471536  -1.0911399083
H  -1.4560572511  -0.0186294933  1.1044868604
H  -0.5092596818  1.3593698374  0.5357965402
H  -1.4082202918  -0.0670266857  -1.3216293380
H  -0.4829757315  -1.4243142744  -0.7171763142