14
charge=0, multiplicity=1, basis=def2-QZVPPD, AUX_BASIS_CORR=rimp2-def2-QZVPPD, SCF_ALGORITHM=GDM, xc_grid=000099000590, mem_total=7500, num_basis=672, num_pairs=208043, num_threads=2
N  -0.0053210537  2.3087475355  0.0000000000
C  0.0007178401  1.6080564157  1.1364609845
C  0.0115191246  0.2186730620  1.1877805686
C  0.0135839917  -0.5135335697  0.0000000000
C  0.0115191246  0.2186730620  -1.1877805686
C  0.0007178401  1.6080564157  -1.1364609845
C  -0.0073869504  -2.0185182651  0.0000000000
H  -0.0001413496  2.1880212810  2.0544510322
H  0.0199567226  -0.2850508705  2.1478133680
H  0.0199567226  -0.2850508705  -2.1478133680
H  -0.0001413496  2.1880212810  -2.0544510322
H  0.4860938711  -2.4235452614  -0.8849906203
H  0.4860938711  -2.4235452614  0.8849906203
H  -1.0371684052  -2.3890049541  0.0000000000