9
charge=0, multiplicity=1, basis=def2-QZVPPD, AUX_BASIS_CORR=rimp2-def2-QZVPPD, SCF_ALGORITHM=GDM, xc_grid=000099000590, mem_total=3750, num_basis=387, num_pairs=75468, num_threads=1
C  -0.4346610224  0.7528549749  0.0000000000
C  -0.4346610224  -0.7528549749  0.0000000000
C  0.8693220448  0.0000000000  0.0000000000
H  -0.7286709915  1.2620951793  0.9091295363
H  -0.7286709915  1.2620951793  -0.9091295363
H  -0.7286709915  -1.2620951793  0.9091295363
H  -0.7286709915  -1.2620951793  -0.9091295363
H  1.4573419830  0.0000000000  -0.9091295363
H  1.4573419830  0.0000000000  0.9091295363