10
charge=0, multiplicity=1, basis=def2-QZVPPD, AUX_BASIS_CORR=rimp2-def2-QZVPPD, SCF_ALGORITHM=GDM, xc_grid=000099000590, mem_total=3750, num_basis=453, num_pairs=102300, num_threads=1
O  0.0000000000  0.0000000000  -1.3523316538
C  0.0000000000  1.0390050238  -0.3402668406
C  0.0000000000  0.0000000000  0.7974488429
C  0.0000000000  -1.0390050238  -0.3402668406
H  0.8880499040  1.6735101012  -0.4054229841
H  -0.8880499040  1.6735101012  -0.4054229841
H  -0.8867600257  0.0000000000  1.4285542142
H  0.8867600257  0.0000000000  1.4285542142
H  0.8880499040  -1.6735101012  -0.4054229841
H  -0.8880499040  -1.6735101012  -0.4054229841