17
charge=0, multiplicity=1, basis=def2-QZVPPD, AUX_BASIS_CORR=rimp2-def2-QZVPPD, SCF_ALGORITHM=GDM, xc_grid=000099000590, mem_total=7500, num_basis=711, num_pairs=224851, num_threads=2
C  0.0000000000  -2.5568481103  -0.2995064085
C  0.0000000000  -1.2823825579  0.5460812299
C  0.0000000000  0.0000000000  -0.2897518668
C  0.0000000000  1.2823825579  0.5460812299
C  0.0000000000  2.5568481103  -0.2995064085
H  0.0000000000  -3.4522368706  0.3267656280
H  -0.8820397821  -2.6033075797  -0.9444064808
H  0.8820397821  -2.6033075797  -0.9444064808
H  0.8754252311  -1.2824450932  1.2053074874
H  -0.8754252311  -1.2824450932  1.2053074874
H  0.8759271095  0.0000000000  -0.9502665291
H  -0.8759271095  0.0000000000  -0.9502665291
H  0.8754252311  1.2824450932  1.2053074874
H  -0.8754252311  1.2824450932  1.2053074874
H  0.8820397821  2.6033075797  -0.9444064808
H  0.0000000000  3.4522368706  0.3267656280
H  -0.8820397821  2.6033075797  -0.9444064808