7
charge=0, multiplicity=1, basis=def2-QZVPPD, AUX_BASIS_CORR=rimp2-def2-QZVPPD, SCF_ALGORITHM=GDM, xc_grid=000099000590, mem_total=3750, num_basis=324, num_pairs=53077, num_threads=1
C  0.0000000000  -0.7328799347  0.0499368713
C  0.0000000000  0.7328799347  0.0499368713
O  0.0000000000  0.0000000000  -1.1787543600
H  -0.9190452985  -1.2690564942  0.2697201544
H  0.9190452985  -1.2690564942  0.2697201544
H  -0.9190452985  1.2690564942  0.2697201544
H  0.9190452985  1.2690564942  0.2697201544