14
charge=0, multiplicity=1, basis=def2-QZVPPD, AUX_BASIS_CORR=rimp2-def2-QZVPPD, SCF_ALGORITHM=GDM, xc_grid=000099000590, mem_total=7500, num_basis=672, num_pairs=206975, num_threads=2
N  0.1196414565  1.3031848585  0.0000000000
C  -1.2125677584  1.3463510335  0.0000000000
C  -2.0218764829  0.2146272629  0.0000000000
C  -1.4022260552  -1.0284558122  0.0000000000
C  -0.0139965308  -1.0850993181  0.0000000000
C  0.7195079187  0.1041251485  0.0000000000
C  2.2240745599  0.1072736867  0.0000000000
H  -1.6552384058  2.3380873758  0.0000000000
H  -3.1003023784  0.3103376778  0.0000000000
H  -1.9888800871  -1.9397552763  0.0000000000
H  0.4995972751  -2.0387794077  0.0000000000
H  2.6311468740  -0.9045215031  0.0000000000
H  2.6005598073  0.6363121368  -0.8784203006
H  2.6005598073  0.6363121368  0.8784203006