7
charge=0, multiplicity=1, basis=def2-QZVPPD, AUX_BASIS_CORR=rimp2-def2-QZVPPD, SCF_ALGORITHM=GDM, xc_grid=000099000590, mem_total=3750, num_basis=321, num_pairs=51932, num_threads=1
C  0.0000000000  0.6439519364  0.5998826444
C  0.0000000000  0.0000000000  -0.7624080174
C  0.0000000000  -0.6439519364  0.5998826444
H  0.0000000000  1.5739305954  1.1406642841
H  -0.9118790388  0.0000000000  -1.3593429198
H  0.9118790388  0.0000000000  -1.3593429198
H  0.0000000000  -1.5739305954  1.1406642841