9
charge=0, multiplicity=1, basis=def2-QZVPPD, AUX_BASIS_CORR=rimp2-def2-QZVPPD, SCF_ALGORITHM=GDM, xc_grid=000099000590, mem_total=3750, num_basis=387, num_pairs=73913, num_threads=1
C  -1.1315435177  -0.1264992659  0.0000000000
C  0.2330419284  0.4927123112  0.0000000000
C  1.3805457021  -0.1764270645  0.0000000000
H  -1.0769879693  -1.2168745958  0.0000000000
H  -1.7053597829  0.1872996969  -0.8779142156
H  -1.7053597829  0.1872996969  0.8779142156
H  0.2618466762  1.5804598930  0.0000000000
H  1.4073433356  -1.2615931855  0.0000000000
H  2.3364734106  0.3336225136  0.0000000000