26
charge=0, multiplicity=1, basis=def2-QZVPPD, mem_total=30000, AUX_BASIS_CORR=rimp2-def2-QZVPPD, SCF_ALGORITHM=GDM, xc_grid=000099000590, num_basis=1098, num_pairs=540854, num_threads=8
C  -0.1242903956  1.4318275998  -1.3571208662
C  0.0000000000  0.0000000000  -0.7948312178
C  0.0000000000  0.0000000000  0.7948312178
C  -0.1242903956  -1.4318275998  1.3571208662
C  -1.1778538774  -0.8235524399  -1.3571208662
C  1.3021442730  -0.6082751599  -1.3571208662
C  -1.1778538774  0.8235524399  1.3571208662
C  1.3021442730  0.6082751599  1.3571208662
H  -1.0953913407  1.8770146477  -1.1348547691
H  0.6494205962  2.0974933058  -0.9695937023
H  -0.0185720519  1.4106995129  -2.4449325615
H  -1.0953913407  -1.8770146477  1.1348547691
H  0.6494205962  -2.0974933058  0.9695937023
H  -0.0185720519  -1.4106995129  2.4449325615
H  -2.1411927852  -0.4863319188  -0.9695937023
H  -1.2124155893  -0.7214336252  -2.4449325615
H  -1.0778466978  -1.8871440520  -1.1348547691
H  2.1732380386  0.0101294043  -1.1348547691
H  1.4917721890  -1.6111613870  -0.9695937023
H  1.2309876412  -0.6892658877  -2.4449325615
H  -2.1411927852  0.4863319188  0.9695937023
H  -1.2124155893  0.7214336252  2.4449325615
H  -1.0778466978  1.8871440520  1.1348547691
H  2.1732380386  -0.0101294043  1.1348547691
H  1.4917721890  1.6111613870  0.9695937023
H  1.2309876412  0.6892658877  2.4449325615