10
charge=0, multiplicity=1, basis=def2-QZVPPD, AUX_BASIS_CORR=rimp2-def2-QZVPPD, SCF_ALGORITHM=GDM, xc_grid=000099000590, mem_total=3750, num_basis=420, num_pairs=87743, num_threads=1
C  0.2111345647  -1.0647677909  0.0000000000
C  -0.6107533740  0.2275482610  0.0000000000
N  0.1551121630  1.4761362478  0.0000000000
H  0.7555988044  1.5312578849  -0.8158934221
H  0.7555988044  1.5312578849  0.8158934221
H  -0.4355257810  -1.9475275259  0.0000000000
H  0.8533896199  -1.1207566328  -0.8837936181
H  0.8533896199  -1.1207566328  0.8837936181
H  -1.2689722106  0.2438041518  0.8734274830
H  -1.2689722106  0.2438041518  -0.8734274830