12
charge=0, multiplicity=1, basis=def2-QZVPPD, mem_total=3750, AUX_BASIS_CORR=rimp2-def2-QZVPPD, SCF_ALGORITHM=GDM, xc_grid=000099000590, num_basis=582, num_pairs=151558, num_threads=1
C  -2.1035559950  -0.6646282321  0.0000000000
C  -1.0142926410  0.3702849095  0.0000000000
O  0.2152064164  -0.2382672859  0.0000000000
C  1.3480610341  0.5583342091  0.0000000000
C  2.5495373105  0.0043357040  0.0000000000
O  -1.1654992798  1.5620366483  0.0000000000
H  -3.0717794595  -0.1708153732  0.0000000000
H  -2.0100151893  -1.3039754477  0.8797769592
H  -2.0100151893  -1.3039754477  -0.8797769592
H  1.1509699733  1.6215217545  0.0000000000
H  2.6839785910  -1.0693988228  0.0000000000
H  3.4274044287  0.6345473841  0.0000000000