10
charge=0, multiplicity=1, basis=def2-QZVPPD, AUX_BASIS_CORR=rimp2-def2-QZVPPD, SCF_ALGORITHM=GDM, xc_grid=000099000590, mem_total=3750, num_basis=450, num_pairs=100801, num_threads=1
C  0.0000000000  0.6679671775  -0.9274847045
C  0.0000000000  0.7863983775  0.5853162774
C  0.0000000000  -0.7863983775  0.5853162774
C  0.0000000000  -0.6679671775  -0.9274847045
H  0.0000000000  1.4134334409  -1.7136786885
H  0.8881557424  1.2447685101  1.0279235578
H  -0.8881557424  1.2447685101  1.0279235578
H  -0.8881557424  -1.2447685101  1.0279235578
H  0.8881557424  -1.2447685101  1.0279235578
H  0.0000000000  -1.4134334409  -1.7136786885