12
charge=0, multiplicity=1, basis=def2-QZVPPD, AUX_BASIS_CORR=rimp2-def2-QZVPPD, SCF_ALGORITHM=GDM, xc_grid=000099000590, mem_total=3750, num_basis=516, num_pairs=125469, num_threads=1
C  0.1283827721  1.8170667937  -0.1861493159
N  -0.4869245545  0.5192677109  0.0464181373
N  0.4869245545  -0.5192677109  0.0464181373
C  -0.1283827721  -1.8170667937  -0.1861493159
H  -0.6497992233  2.5828845686  -0.1489562835
H  0.5792805468  1.8246154981  -1.1786999899
H  0.9088901020  2.0810372821  0.5457432123
H  -1.0117278640  0.5301215830  0.9216442397
H  1.0117278640  -0.5301215830  0.9216442397
H  -0.5792805468  -1.8246154981  -1.1786999899
H  0.6497992233  -2.5828845686  -0.1489562835
H  -0.9088901020  -2.0810372821  0.5457432123