9
charge=0, multiplicity=1, basis=def2-QZVPPD, AUX_BASIS_CORR=rimp2-def2-QZVPPD, SCF_ALGORITHM=GDM, xc_grid=000099000590, mem_total=3750, num_basis=390, num_pairs=76042, num_threads=1
O  -1.5868119326  0.1346440326  -0.2679483155
C  -0.4093977449  0.0443072757  0.5357590567
C  0.8732778702  0.0915860010  -0.2818917203
H  -1.5921613911  -0.6074675928  -0.8831399610
H  -0.4596427904  0.8976076654  1.2139732329
H  -0.4318956934  -0.8640840720  1.1524013951
H  0.9139434852  1.0015014611  -0.8838876496
H  1.7497833214  0.0690603582  0.3715481594
H  0.9429048757  -0.7671551292  -0.9568141977