16
charge=0, multiplicity=1, basis=def2-QZVPPD, AUX_BASIS_CORR=rimp2-def2-QZVPPD, SCF_ALGORITHM=GDM, xc_grid=000099000590, mem_total=7500, num_basis=768, num_pairs=260445, num_threads=2
C  0.0050428918  -0.5109371202  -1.2979432733
C  -0.0183877389  -1.8823625476  -1.0695069468
C  -0.0157829269  -2.3712948214  0.2320123888
C  0.0111554196  -1.4759701884  1.3005933736
C  0.0321928065  -0.1080939829  1.0707006449
C  0.0252709264  0.4029022421  -0.2358878744
C  0.0400199312  1.8423707127  -0.5362886436
C  -0.0471022585  2.8553644853  0.3271785080
H  0.0035678472  -0.1366536138  -2.3159150105
H  -0.0363063401  -2.5679127833  -1.9084948906
H  -0.0315768492  -3.4388992471  0.4154240934
H  0.0182680347  -1.8488968009  2.3181380113
H  0.0607410079  0.5693592526  1.9151695452
H  0.1241238232  2.0801376572  -1.5938561097
H  -0.1453323476  2.7096556249  1.3964036211
H  -0.0258942275  3.8812311306  -0.0177274373