20
charge=0, multiplicity=1, basis=def2-QZVPPD, AUX_BASIS_CORR=rimp2-def2-QZVPPD, SCF_ALGORITHM=GDM, xc_grid=000099000590, mem_total=15000, num_basis=906, num_pairs=338954, num_threads=4
C  -2.9240982061  -0.8875377361  0.3962982104
C  -1.9458640750  -0.0045911996  -0.3801114100
C  -0.5421534533  0.0224729220  0.2305214452
C  0.4340621319  0.9154542470  -0.5407918496
C  1.8402454255  0.9542376261  0.0592062410
C  2.6205081446  -0.3265217999  -0.1278924335
O  3.6771482337  -0.3965184504  0.7233295652
O  2.3900631048  -1.1902116729  -0.9362873487
H  4.1515932352  -1.2186135381  0.5209699077
H  -3.9139409468  -0.8883473190  -0.0661531692
H  -2.5752455134  -1.9231205024  0.4351842742
H  -3.0398534958  -0.5392283410  1.4265901235
H  -2.3384399108  1.0175050472  -0.4308473287
H  -1.8787212292  -0.3571305096  -1.4150506478
H  -0.6073718993  0.3701093566  1.2691797994
H  -0.1490782240  -0.9986803448  0.2674955848
H  0.0452880068  1.9383789198  -0.5670668273
H  0.4996450400  0.5753952740  -1.5776884551
H  2.4381839776  1.7425250367  -0.4121094178
H  1.8180296538  1.1944229842  1.1252237363