12
charge=0, multiplicity=1, basis=def2-QZVPPD, AUX_BASIS_CORR=rimp2-def2-QZVPPD, SCF_ALGORITHM=GDM, xc_grid=000099000590, mem_total=3750, num_basis=582, num_pairs=163697, num_threads=1
C  0.2225926080  1.4279982385  0.0272321220
C  -0.9743606732  0.4975173192  -0.1304023413
C  -0.4168015883  -0.8738344111  0.2540891726
C  1.0688230603  -0.7215879657  -0.0955263210
O  1.3645391094  0.6826063565  0.0774946587
O  0.2333520564  2.6227043013  0.0957705665
H  -1.2909381483  0.5369276144  -1.1770308393
H  -1.8045312079  0.8482317260  0.4796171614
H  -0.5348784170  -1.0449628337  1.3259398040
H  -0.8819276452  -1.7047272929  -0.2757378677
H  1.2749517433  -0.9895130056  -1.1355310677
H  1.7391791026  -1.2813600468  0.5540849518