10
charge=0, multiplicity=1, basis=def2-QZVPPD, AUX_BASIS_CORR=rimp2-def2-QZVPPD, SCF_ALGORITHM=GDM, xc_grid=000099000590, mem_total=3750, num_basis=456, num_pairs=97475, num_threads=1
C  -0.1467084143  1.7475993832  -0.0016211788
O  0.5317944431  0.5079081434  0.0261361467
O  -0.5317944431  -0.5079081434  0.0261361467
C  0.1467084143  -1.7475993832  -0.0016211788
H  0.6467504043  2.4967614367  0.0034927078
H  -0.7478743046  1.8522939528  -0.9098066468
H  -0.7796222803  1.8748189457  0.8817989711
H  -0.6467504043  -2.4967614367  0.0034927078
H  0.7478743046  -1.8522939528  -0.9098066468
H  0.7796222803  -1.8748189457  0.8817989711