13
charge=0, multiplicity=1, basis=def2-QZVPPD, AUX_BASIS_CORR=rimp2-def2-QZVPPD, SCF_ALGORITHM=GDM, xc_grid=000099000590, mem_total=3750, num_basis=579, num_pairs=149376, num_threads=1
C  -2.6608192886  -0.2193952143  0.0000000000
C  -1.4935081512  0.4311880366  0.0000000000
C  -0.1897929585  -0.2086808637  0.0000000000
C  0.9745568727  0.4506571523  0.0000000000
C  2.3282246426  -0.1853918267  0.0000000000
H  -2.7066000133  -1.3033257091  0.0000000000
H  -3.6056152156  0.3090612839  0.0000000000
H  -1.4950086051  1.5191037192  0.0000000000
H  -0.1824259211  -1.2973785140  0.0000000000
H  0.9540843119  1.5391474552  0.0000000000
H  2.2608201925  -1.2749612546  0.0000000000
H  2.9080420668  0.1199878676  0.8775107186
H  2.9080420668  0.1199878676  -0.8775107186