14
charge=0, multiplicity=1, basis=def2-QZVPPD, AUX_BASIS_CORR=rimp2-def2-QZVPPD, SCF_ALGORITHM=GDM, xc_grid=000099000590, mem_total=3750, num_basis=612, num_pairs=182790, num_threads=1
N  1.3236032682  -0.0409370709  0.0000000000
C  0.4816218889  0.2502032033  1.1630480685
C  -0.8662609918  -0.3875882526  0.7779598529
C  -0.8662609918  -0.3875882526  -0.7779598529
C  0.4816218889  0.2502032033  -1.1630480685
H  2.1878338683  0.4883081495  0.0000000000
H  0.9111494142  -0.1766247704  2.0715708686
H  0.3481824822  1.3330866405  1.3278128281
H  -1.7063840605  0.1662683755  1.1991850050
H  -0.9240273012  -1.4090307356  1.1557883225
H  -0.9240273012  -1.4090307356  -1.1557883225
H  -1.7063840605  0.1662683755  -1.1991850050
H  0.9111494142  -0.1766247704  -2.0715708686
H  0.3481824822  1.3330866405  -1.3278128281