8
charge=0, multiplicity=1, basis=def2-QZVPPD, AUX_BASIS_CORR=rimp2-def2-QZVPPD, SCF_ALGORITHM=GDM, xc_grid=000099000590, mem_total=3750, num_basis=390, num_pairs=75110, num_threads=1
C  0.9629769520  0.0802005138  0.0000000000
C  -0.5305565968  0.2513090011  0.0000000000
O  -1.1695041366  -0.9484655644  0.0000000000
O  -1.1256007571  1.2982313792  0.0000000000
H  -2.1220877935  -0.7632979217  0.0000000000
H  1.2722246984  -0.4871689311  -0.8797238851
H  1.2722246984  -0.4871689311  0.8797238851
H  1.4403229352  1.0563604543  0.0000000000