13
charge=0, multiplicity=1, basis=def2-QZVPPD, AUX_BASIS_CORR=rimp2-def2-QZVPPD, SCF_ALGORITHM=GDM, xc_grid=000099000590, mem_total=3750, num_basis=579, num_pairs=154104, num_threads=1
C  -0.1710425905  2.3709566072  0.1890254523
C  0.4181014388  1.1805583706  0.1974245392
C  0.0000000000  0.0000000000  -0.6408225004
C  -0.4181014388  -1.1805583706  0.1974245392
C  0.1710425905  -2.3709566072  0.1890254523
H  -1.0216832555  2.5810689026  -0.4516089680
H  0.1759568373  3.1811550193  0.8192096067
H  1.2651478604  1.0094479198  0.8579647770
H  0.8285523563  -0.3006857055  -1.2916041569
H  -0.8285523563  0.3006857055  -1.2916041569
H  -1.2651478604  -1.0094479198  0.8579647770
H  1.0216832555  -2.5810689026  -0.4516089680
H  -0.1759568373  -3.1811550193  0.8192096067