12
charge=0, multiplicity=1, basis=def2-QZVPPD, AUX_BASIS_CORR=rimp2-def2-QZVPPD, SCF_ALGORITHM=GDM, xc_grid=000099000590, mem_total=3750, num_basis=549, num_pairs=140830, num_threads=1
C  -1.8802729837  -0.3289070258  -0.0012373332
C  -0.5628302009  0.4258103807  -0.0121049271
N  0.5618056331  -0.3444352449  -0.0323172325
C  1.8916243640  0.2417709659  0.0026961789
O  -0.5159193427  1.6456447360  -0.0120298496
H  -2.4708971239  -0.0120046740  -0.8617230287
H  -2.4345023595  -0.0518287271  0.8967517697
H  -1.7665102824  -1.4138903063  -0.0285398353
H  0.4704615769  -1.3437412274  0.0337685872
H  1.9403728095  1.0798302741  -0.6917462742
H  2.6205702810  -0.5122390198  -0.2927909589
H  2.1460976288  0.6139898687  0.9992729036