24
charge=0, multiplicity=1, basis=def2-QZVPPD, AUX_BASIS_CORR=rimp2-def2-QZVPPD, SCF_ALGORITHM=GDM, xc_grid=000099000590, mem_total=30000, num_basis=1170, num_pairs=566970, num_threads=8
C  1.2327016824  -0.3352026295  1.2550444320
C  -0.1570031699  0.1589598874  1.7053768622
C  -1.2109507442  -0.2386004294  0.6753005960
C  -0.7951326507  0.2548037801  -0.7101342773
C  0.6195447467  -0.2519600111  -1.0505845070
O  1.5378691747  0.1955178897  -0.0337646261
O  -0.5423012484  -0.4136603094  2.9572591465
O  -2.4976640368  0.3243150877  0.9626145771
O  -1.7031901500  -0.2076851429  -1.7197544107
C  1.1370625126  0.2874022125  -2.3926086483
O  0.5160909201  -0.3393085980  -3.5095956464
H  0.1846861154  -0.2551386637  3.5776462987
H  -2.7502351191  0.0142379841  1.8438886882
H  -0.4420515568  -0.2643350675  -3.3733456331
H  -2.5929812940  0.0469614506  -1.4344047265
O  2.2363872953  0.0574643147  2.1564259804
H  2.3186787541  1.0222567050  2.0868752215
H  1.2515356270  -1.4369125768  1.2393447303
H  -0.1174172521  1.2613389934  1.7703002321
H  -1.2747765766  -1.3396584434  0.6501915518
H  -0.7694464235  1.3573545312  -0.6972054208
H  0.6083076457  -1.3543986631  -1.0903271552
H  1.0011638601  1.3839824228  -2.4076216236
H  2.2091218877  0.0722652759  -2.4609216417