51
charge=0, multiplicity=1, basis=def2-QZVPPD, mem_total=240000, AUX_BASIS_CORR=rimp2-def2-QZVPPD, SCF_ALGORITHM=GDM, xc_grid=000099000590, num_basis=2541, num_pairs=1935390, num_threads=64
C  -3.0519704597  0.8108290754  -0.4397097830
C  -3.2710819261  -0.4869719473  0.0141966269
C  -2.1836081943  -1.3633078600  0.1871095180
C  -0.8678619188  -0.9603863363  -0.1098373788
C  -0.6596708144  0.3939196995  -0.4886898349
C  -1.7484516898  1.2569722904  -0.6874513595
C  -1.5369106351  2.6720201769  -1.1968592989
C  0.7853411407  0.8586541773  -0.7221519059
C  -0.1333229648  2.8333605973  -1.7855673360
N  0.8549302360  2.3352908659  -0.8129219136
C  1.7106982452  0.1831077681  0.2997607529
C  0.3000024076  -1.8691747328  -0.0613793662
C  1.5815652710  -1.3111690540  0.1286864243
C  1.3161837571  -4.0762341530  -0.2365290709
C  2.5943462275  -3.5144740516  -0.0139088177
C  2.7089161640  -2.1367400009  0.1589008581
C  0.1892619156  -3.2615351533  -0.2669706036
O  -4.5467886981  -0.8981750398  0.2932227868
O  -2.5222787922  -2.6373242049  0.6533661818
C  -2.1135606798  -2.8652928638  2.0222846364
O  1.3186784925  -5.4451019951  -0.4195329966
C  0.0592150432  -6.0812372687  -0.6526294613
O  3.7195572278  -4.2925364288  0.0203642295
C  1.3372227441  3.1480407222  0.1879810238
O  2.0454752264  2.8187863469  1.1250830578
O  0.9468087356  4.4537371994  -0.0214735465
C  1.4969349381  5.4205807052  0.9114380589
C  0.9399774846  6.7819942705  0.5290043359
H  -3.9037014509  1.4701124041  -0.5937620064
H  -2.2978419590  2.9081450842  -1.9539258241
H  -1.6588151028  3.3960642345  -0.3783410508
H  1.1000937536  0.4968641932  -1.7167668802
H  -0.0295002187  2.2178750379  -2.6899163830
H  0.0829776443  3.8697683125  -2.0450104324
H  1.4158190098  0.4792780206  1.3130230248
H  2.7446597182  0.5059880954  0.1543925675
H  3.6982724757  -1.7101180702  0.3088214717
H  -0.7870818175  -3.6923096086  -0.4483437769
H  -4.4848321020  -1.8410421382  0.5274308723
H  -2.5661127774  -2.1137121077  2.6856449864
H  -1.0200866769  -2.8265948136  2.1072719272
H  -2.4729663966  -3.8653648568  2.2874682654
H  0.2764629323  -7.1473848761  -0.7612207248
H  -0.6236132862  -5.9200602591  0.1953655999
H  -0.4099303495  -5.6969408481  -1.5707218585
H  3.4504585448  -5.2120373607  -0.1352976548
H  1.2119394238  5.1356060965  1.9317764807
H  2.5923166699  5.3953575091  0.8478317411
H  -0.1549909642  6.7888957845  0.5958624526
H  1.3349883891  7.5419105585  1.2159776550
H  1.2318760562  7.0520668033  -0.4933462702