26
charge=0, multiplicity=1, basis=def2-QZVPPD, AUX_BASIS_CORR=rimp2-def2-QZVPPD, SCF_ALGORITHM=GDM, xc_grid=000099000590, mem_total=30000, num_basis=1287, num_pairs=637984, num_threads=8
C  -1.3563851239  2.1276263640  -0.6540075041
C  -2.6522239385  1.7556304042  -0.2927667910
C  -2.9054851392  0.4540545855  0.1530579157
C  -1.8607223944  -0.4674831722  0.2204990936
C  -0.5396599599  -0.1112613582  -0.1119958151
C  -0.3060665565  1.2116881896  -0.5480595044
H  -1.1387070776  3.1250038399  -1.0287753048
H  -3.4620661009  2.4783913319  -0.3672753946
H  -3.9124985744  0.1554482916  0.4350852090
H  -2.0660975031  -1.4803799704  0.5567598202
C  0.5731098126  -1.1202192581  -0.0010102860
O  0.9385002693  1.6088960893  -1.0131238693
C  1.9281693691  2.1110279554  -0.1533977586
O  2.9882857943  2.3977527706  -0.6350668887
C  1.5342876576  2.2745471173  1.2971119718
O  1.6896300274  -0.7973964337  0.3747485839
C  0.2394385412  -2.5602334429  -0.3912263876
C  1.4619625053  -3.4802100101  -0.4296064352
H  0.6192540218  2.8726188159  1.3887015179
H  2.3579429895  2.7588007148  1.8262907798
H  1.3409461142  1.2863333889  1.7279874911
H  -0.2786807518  -2.5355524461  -1.3613979411
H  -0.5058783531  -2.9397171503  0.3254363445
H  2.1958268384  -3.1167419249  -1.1580487346
H  1.1612555081  -4.4977388286  -0.7078148136
H  1.9558620245  -3.5108858634  0.5478947012