72
charge=0, multiplicity=1, basis=def2-QZVPPD, mem_total=700000, AUX_BASIS_CORR=rimp2-def2-QZVPPD, SCF_ALGORITHM=GDM, xc_grid=000099000590, num_basis=3288, num_pairs=3424451, num_threads=128
C  -0.9350514000  1.3631458000  0.3620705000
C  -0.8901624000  -0.1803078000  0.0926089000
C  0.6389271000  -0.0388228000  0.1923933000
C  0.3386101000  1.4805899000  -0.1430690000
C  1.1521405000  2.5837257000  -0.7919377000
C  1.8437228000  3.5207832000  0.2268528000
C  2.2270022000  1.9371576000  -1.6895553000
C  0.2433102000  3.4329132000  -1.7109210000
C  -2.0913814000  2.2338556000  0.7923821000
C  -1.6004649000  3.5198308000  1.4895293000
C  -2.9992925000  2.6131966000  -0.4060408000
C  -2.9410049000  1.4209525000  1.7965565000
C  -0.6376021000  -1.7107328000  0.2452394000
C  0.6306897000  -1.5470368000  -0.2915821000
C  1.3135346000  -0.0787791000  1.6854426000
C  0.8838526000  1.0813228000  2.6088744000
C  2.8370082000  0.0233682000  1.4709380000
C  1.0403886000  -1.3634981000  2.5046203000
C  1.5659489000  -2.4424061000  -1.0670180000
C  2.3110917000  -3.4386461000  -0.1450783000
C  0.7374252000  -3.2415097000  -2.1060633000
C  2.5855293000  -1.5843999000  -1.8395923000
C  -1.3712205000  -0.2015029000  -1.3911190000
O  -0.7224616000  0.0231665000  -2.3951379000
O  -2.6835990000  -0.5391494000  -1.4110658000
C  -3.2950860000  -0.6249038000  -2.7217616000
C  -1.5142039000  -2.7979037000  0.6613690000
O  -2.6448324000  -2.6461982000  1.0909383000
O  -0.8986635000  -4.0255483000  0.5854963000
C  -1.7004007000  -5.1444282000  1.0288847000
H  2.3602206000  4.3235786000  -0.3172222000
H  1.1154134000  3.9756223000  0.9068401000
H  2.5874714000  2.9844200000  0.8262884000
H  2.9061411000  1.3047429000  -1.1104156000
H  1.7505794000  1.3166840000  -2.4552496000
H  2.8145693000  2.7250884000  -2.1797336000
H  -0.2864875000  2.7855576000  -2.4182916000
H  -0.4914138000  4.0054806000  -1.1380974000
H  0.8619065000  4.1448550000  -2.2743852000
H  -0.9440097000  3.2769644000  2.3324257000
H  -1.0544445000  4.1739184000  0.8030847000
H  -2.4669441000  4.0770621000  1.8702754000
H  -2.4384207000  3.1458410000  -1.1801528000
H  -3.4465475000  1.7169578000  -0.8458440000
H  -3.8103670000  3.2635832000  -0.0496999000
H  -2.3614303000  1.1815999000  2.6970400000
H  -3.8178757000  2.0098285000  2.0976371000
H  -3.2771796000  0.4805885000  1.3453812000
H  1.4123273000  0.9704123000  3.5656609000
H  1.1204835000  2.0647263000  2.2023628000
H  -0.1932011000  1.0459232000  2.8053346000
H  3.3444290000  0.0342768000  2.4453082000
H  3.2179395000  -0.8317338000  0.9041745000
H  3.1076197000  0.9400224000  0.9382411000
H  -0.0315299000  -1.4835696000  2.7049952000
H  1.3992937000  -2.2736463000  2.0198713000
H  1.5577263000  -1.2671156000  3.4688090000
H  2.9714358000  -2.9165729000  0.5566382000
H  1.5999602000  -4.0479558000  0.4213464000
H  2.9284023000  -4.0987160000  -0.7694505000
H  0.0194003000  -3.9010466000  -1.6120559000
H  0.2020904000  -2.5513116000  -2.7683120000
H  1.4205563000  -3.8519885000  -2.7123762000
H  3.2071112000  -0.9864531000  -1.1665160000
H  3.2398257000  -2.2439010000  -2.4248192000
H  2.0657924000  -0.9043300000  -2.5216641000
H  -3.2520216000  0.3486708000  -3.2244320000
H  -2.7747712000  -1.3701467000  -3.3344736000
H  -4.3293448000  -0.9246540000  -2.5363075000
H  -1.0660405000  -6.0247986000  0.8949603000
H  -1.9792984000  -5.0209412000  2.0822131000
H  -2.6131219000  -5.2257582000  0.4263567000