32
charge=0, multiplicity=1, basis=def2-QZVPPD, AUX_BASIS_CORR=rimp2-def2-QZVPPD, SCF_ALGORITHM=GDM, xc_grid=000099000590, mem_total=60000, num_basis=1539, num_pairs=886553, num_threads=16
C  -3.0571646099  0.2394313926  0.8330099213
C  -3.7467170981  -0.9624780444  0.6609719795
C  -3.1044894700  -2.0461861564  0.0533008930
C  -1.7783581236  -1.9212194951  -0.3676979315
C  -1.0715027497  -0.7188206723  -0.2137509788
C  -1.7340043987  0.3708315194  0.3876000388
C  0.3930650438  -0.6540563585  -0.5793114329
C  1.2934855821  -0.9664918185  0.6490970222
C  2.7626501450  -0.8633119867  0.3008877313
C  3.3851066815  0.4606913189  0.2054440422
C  2.8109808789  1.6332088643  0.5242341006
C  -1.0449629378  1.6995863213  0.5991839339
C  -0.7996405095  2.5726755578  -0.5786520715
C  -1.2573459638  2.3172668618  -1.8126343625
O  -0.7233213166  2.0711738092  1.7236309596
C  3.4906818587  -1.9688695413  0.0433330894
H  -4.7769872277  -1.0519183537  0.9993269713
H  -3.6327995288  -2.9873518053  -0.0868711838
H  -1.2713421240  -2.7703565303  -0.8249627816
H  -3.5447360067  1.0883665113  1.3086516361
H  0.6585202779  0.3334375146  -0.9697002530
H  0.6123814063  -1.3875611322  -1.3654123660
H  1.0654313102  -1.9792964187  1.0031952613
H  1.0387298505  -0.2728847325  1.4602442868
H  4.5406356532  -1.9009766949  -0.2399774527
H  3.0540339984  -2.9636544223  0.1194110442
H  4.4184379117  0.4633732332  -0.1490920161
H  3.3650146053  2.5653104301  0.4327855418
H  1.7940886546  1.7013321357  0.9034458927
H  -0.2396101083  3.4817961849  -0.3585254483
H  -1.8253273964  1.4125231317  -2.0240077386
H  -1.0749342886  3.0044293761  -2.6371583289