43
charge=0, multiplicity=1, basis=def2-QZVPPD, AUX_BASIS_CORR=rimp2-def2-QZVPPD, SCF_ALGORITHM=GDM, xc_grid=000099000590, mem_total=120000, num_basis=2085, num_pairs=1556567, num_threads=32
C  -3.4520153627  1.1860036270  1.1744944987
C  -2.1270241609  1.3097061116  1.4353770869
C  -1.0177560629  0.7375400561  0.6454633468
C  -1.0931138467  0.9988424122  -0.9223467015
C  -1.5014200528  -0.1801730118  -1.7111142246
C  -2.7546303987  -0.6915609972  -1.6936732977
C  -3.9361058677  -0.2575454383  -0.9781690099
C  -4.2017559912  0.4951698740  0.1400150414
C  0.3664380067  1.4344483885  0.6929909444
C  0.3937622920  1.4950752416  -0.8859358364
C  1.3752641536  0.7644881610  1.5744332809
C  2.7098325793  0.9072805675  1.6083196911
C  3.5486869305  1.6854762155  0.7046372959
C  3.5973783747  1.6710141889  -0.6407723753
C  2.8877881092  0.8397074244  -1.6432180200
C  1.3603013097  0.7355635146  -1.7589601753
N  2.1727473134  -0.3934156467  -1.4005046561
C  2.2079202213  -1.3332301042  -0.4001867859
O  3.2178873146  -1.7770095286  0.1073492783
O  0.9348311060  -1.7760395563  -0.1558864657
C  0.8183784861  -2.8232055448  0.8437865312
C  -0.6287221294  -3.2876018217  0.8506382287
H  -4.1066138503  1.7118403903  1.8717126943
H  -1.8457795496  1.9628381416  2.2646576278
H  -0.9057280300  -0.3381052575  0.8014839455
H  -1.7842987612  1.8293441650  -1.1003185695
H  -0.7379936307  -0.7267319435  -2.2620047879
H  -2.9302446210  -1.5575727464  -2.3346670296
H  -4.8458273852  -0.6643830990  -1.4258189132
H  -5.2747192227  0.5867519663  0.3208291408
H  0.2416594867  2.4700023021  1.0465629849
H  0.4642954758  2.5355286351  -1.2287021592
H  0.9278664437  0.1376335092  2.3490452260
H  3.2409882566  0.4236223921  2.4300699025
H  4.2875630079  2.3209287529  1.1994091462
H  4.3281371913  2.3322628320  -1.1077877848
H  3.4161325395  0.8307953067  -2.6002315771
H  0.9910485213  0.6867217064  -2.7888357722
H  1.1212645424  -2.4111252552  1.8159946069
H  1.5080440360  -3.6377644140  0.5921115183
H  -1.3110682575  -2.4669585610  1.1014256222
H  -0.7502222131  -4.0814269823  1.5992218001
H  -0.9131763042  -3.6847359736  -0.1308952978