26
charge=0, multiplicity=1, basis=def2-QZVPPD, AUX_BASIS_CORR=rimp2-def2-QZVPPD, SCF_ALGORITHM=GDM, xc_grid=000099000590, mem_total=30000, num_basis=1278, num_pairs=594704, num_threads=8
C  -4.1262176405  -0.7529950929  0.2299590320
C  -4.3421630842  0.3006844449  -0.6664873481
C  -3.2616318454  1.1094429672  -1.0359074568
C  -1.9811314230  0.8770382453  -0.5289042187
C  -1.7679314594  -0.1822342882  0.3704755572
C  -2.8543856002  -0.9939086084  0.7496060569
N  -0.4884072982  -0.4923716787  0.8579051581
N  0.4884072982  0.4923716787  0.8579051581
C  1.7679314594  0.1822342882  0.3704755572
C  2.8543856002  0.9939086084  0.7496060569
C  4.1262176405  0.7529950929  0.2299590320
C  4.3421630842  -0.3006844449  -0.6664873481
C  3.2616318454  -1.1094429672  -1.0359074568
C  1.9811314230  -0.8770382453  -0.5289042187
H  -0.4691533880  -1.1191760186  1.6584414379
H  0.4691533880  1.1191760186  1.6584414379
H  -4.9548299780  -1.3903541481  0.5336385492
H  -5.3356900865  0.4891798509  -1.0666105368
H  -3.4123421873  1.9327469510  -1.7321476690
H  -1.1415422357  1.5016221608  -0.8197678826
H  -2.6940896440  -1.8138858266  1.4497993207
H  2.6940896440  1.8138858266  1.4497993207
H  4.9548299780  1.3903541481  0.5336385492
H  5.3356900865  -0.4891798509  -1.0666105368
H  3.4123421873  -1.9327469510  -1.7321476690
H  1.1415422357  -1.5016221608  -0.8197678826