42
charge=0, multiplicity=1, basis=def2-QZVPPD, AUX_BASIS_CORR=rimp2-def2-QZVPPD, SCF_ALGORITHM=GDM, xc_grid=000099000590, mem_total=120000, num_basis=1929, num_pairs=1492126, num_threads=32
C  0.2991247286  1.2371972055  -0.8140441344
C  -0.2833113477  -0.0644153273  -1.4145339035
C  0.0079546570  -1.4210420788  -0.7480077979
C  0.0875538989  -1.2156895306  0.8334833631
C  -0.1791215240  0.2171850316  1.4461536830
C  -0.3195257668  1.5377225880  0.5566545488
C  -0.0685512565  1.9216279064  -2.1712353808
C  0.0211173882  0.4989202158  -2.8352458433
C  -1.8019280666  -0.4637705301  -1.3292395945
C  -1.3260641104  -1.9433247442  -1.3123308500
C  1.3658486888  -2.1543223312  -0.7244280598
C  1.4833257595  -1.8981672085  0.8079877624
C  -1.0066384839  -1.7807369109  1.7785416458
C  -1.4242326894  -0.3413071100  2.1830379405
C  0.8745768337  0.9505616161  2.3177262476
C  0.5068022731  2.3005676977  1.6388891714
O  -1.6336000453  2.0540866690  0.3434056121
C  1.8395597946  1.1801632519  -0.7196608552
H  0.6152793519  2.6993285884  -2.5354975872
H  -1.0966766012  2.2957092319  -2.1703021669
H  -0.7132276364  0.2604311018  -3.6134708086
H  1.0253209884  0.2754000922  -3.2118349685
H  -2.4358071764  -0.1313441118  -2.1594191656
H  -2.2677991866  -0.1750479142  -0.3877112010
H  -1.8961741755  -2.6737419963  -0.7249894508
H  -1.1888877318  -2.3330789432  -2.3301966745
H  2.1437076679  -1.6844780695  -1.3383107454
H  1.2971617144  -3.2152392214  -0.9962847851
H  1.5210438396  -2.8073029105  1.4221361989
H  2.3194053935  -1.2557056029  1.1083261151
H  -0.5602526204  -2.3415422524  2.6096915331
H  -1.7866568459  -2.4008094731  1.3225709043
H  -2.3711958974  -0.0261208502  1.7278196126
H  -1.4626175765  -0.1316120655  3.2601010241
H  1.9036542579  0.6334005780  2.1209595426
H  0.6965872533  0.8918568143  3.3990144681
H  -0.1621204484  2.9092319796  2.2609942057
H  1.3309521819  2.9353631819  1.2954367704
H  -2.0555266482  2.1251705999  1.2107826118
H  2.1880905204  0.5252128454  0.0786384328
H  2.2825968127  0.8219003496  -1.6529092641
H  2.2302518310  2.1877616374  -0.5326981569