72
charge=0, multiplicity=1, basis=def2-QZVPPD, mem_total=700000, AUX_BASIS_CORR=rimp2-def2-QZVPPD, SCF_ALGORITHM=GDM, xc_grid=000099000590, num_basis=3288, num_pairs=3359850, num_threads=128
C  -1.3290810000  -0.5681733000  0.2224080000
C  -0.7191646000  -0.0796303000  -0.9721194000
C  0.7191646000  0.0796303000  -0.9721194000
C  1.3290810000  0.5681733000  0.2224080000
C  0.6203534000  0.3379579000  1.4288862000
C  -0.6203534000  -0.3379579000  1.4288862000
C  -2.5514599000  -1.5737768000  0.2079649000
C  -1.5373921000  0.6293140000  -2.1343583000
C  1.5373921000  -0.6293140000  -2.1343583000
C  2.5514599000  1.5737768000  0.2079649000
C  1.1997975000  0.6731876000  2.7782631000
C  -1.1997975000  -0.6731876000  2.7782631000
C  -2.1289018000  -2.8343630000  1.0245193000
C  -2.8426682000  -2.1456826000  -1.2001731000
C  -3.8849669000  -1.0520516000  0.7992414000
O  -0.3536318000  -1.4914788000  3.4787345000
C  -0.7743635000  1.9574545000  -2.4306907000
C  -1.7923475000  -0.0529211000  -3.5021285000
C  -2.9051169000  1.1203989000  -1.5887424000
C  1.7923475000  0.0529211000  -3.5021285000
C  0.7743635000  -1.9574545000  -2.4306907000
C  2.9051169000  -1.1203989000  -1.5887424000
C  2.8426682000  2.1456826000  -1.2001731000
C  3.8849669000  1.0520516000  0.7992414000
C  2.1289018000  2.8343630000  1.0245193000
O  -2.2375608000  -0.2550260000  3.2399820000
C  -0.7658027000  -1.8004221000  4.8300744000
O  0.3536318000  1.4914788000  3.4787345000
C  0.7658027000  1.8004221000  4.8300744000
O  2.2375608000  0.2550260000  3.2399820000
H  -1.1666101000  -3.2250145000  0.6713307000
H  -2.0563965000  -2.6551851000  2.0974496000
H  -2.8938889000  -3.6091871000  0.8857181000
H  -1.9217799000  -2.4569838000  -1.7019636000
H  -3.4882803000  -3.0256243000  -1.0882044000
H  -3.3791065000  -1.4499271000  -1.8412657000
H  -3.8074872000  -0.8830554000  1.8727824000
H  -4.2076122000  -0.1166417000  0.3369113000
H  -4.6624651000  -1.8076314000  0.6161481000
H  -0.6684024000  2.5485482000  -1.5133811000
H  -1.3547158000  2.5416580000  -3.1578049000
H  0.2178318000  1.7865942000  -2.8450922000
H  -0.8777061000  -0.1765645000  -4.0829201000
H  -2.4590669000  0.5976740000  -4.0837443000
H  -2.2673827000  -1.0308324000  -3.4196832000
H  -2.7931229000  1.5556975000  -0.5898401000
H  -3.6612092000  0.3393917000  -1.5437110000
H  -3.2840360000  1.8964342000  -2.2668681000
H  2.2673827000  1.0308324000  -3.4196832000
H  0.8777061000  0.1765645000  -4.0829201000
H  2.4590669000  -0.5976740000  -4.0837443000
H  0.6684024000  -2.5485482000  -1.5133811000
H  1.3547158000  -2.5416580000  -3.1578049000
H  -0.2178318000  -1.7865942000  -2.8450922000
H  3.6612092000  -0.3393917000  -1.5437110000
H  3.2840360000  -1.8964342000  -2.2668681000
H  2.7931229000  -1.5556975000  -0.5898401000
H  1.9217799000  2.4569838000  -1.7019636000
H  3.3791065000  1.4499271000  -1.8412657000
H  3.4882803000  3.0256243000  -1.0882044000
H  3.8074872000  0.8830554000  1.8727824000
H  4.6624651000  1.8076314000  0.6161481000
H  4.2076122000  0.1166417000  0.3369113000
H  1.1666101000  3.2250145000  0.6713307000
H  2.8938889000  3.6091871000  0.8857181000
H  2.0563965000  2.6551851000  2.0974496000
H  0.0549787000  -2.3833275000  5.2549002000
H  -0.9328813000  -0.8789702000  5.3995767000
H  -1.6951491000  -2.3834886000  4.8178000000
H  -0.0549787000  2.3833275000  5.2549002000
H  1.6951491000  2.3834886000  4.8178000000
H  0.9328813000  0.8789702000  5.3995767000