26
charge=0, multiplicity=1, basis=def2-QZVPPD, AUX_BASIS_CORR=rimp2-def2-QZVPPD, SCF_ALGORITHM=GDM, xc_grid=000099000590, mem_total=30000, num_basis=1287, num_pairs=658135, num_threads=8
C  -3.2493619889  -0.2121825042  0.1908817699
C  -3.0180113588  -0.0802601754  1.5531118052
C  -1.7187017186  0.1430769326  2.0465010453
C  -0.6589052782  0.2373771543  1.1580507321
C  -0.8503599776  0.1108143552  -0.2400828190
C  -2.1808617390  -0.1271867888  -0.7220418456
C  0.2573684135  0.1928934432  -1.2009087337
O  -2.4617928878  -0.2774040975  -2.0266526100
O  0.0637521444  0.0215229722  -2.4210587029
C  1.6869966529  0.5139115285  -0.7363964302
C  1.8296471587  1.9616460560  -0.2365823517
C  2.2643076491  -0.5377314219  0.2413960601
O  2.8380103662  -0.2185108754  1.2650282374
C  2.0956245224  -1.9843502889  -0.1848101957
H  -4.2472971455  -0.3900659496  -0.2016914897
H  -3.8548521447  -0.1517440919  2.2455333969
H  -1.5451917234  0.2414445346  3.1149972768
H  0.3377049632  0.4112868841  1.5486011326
H  -1.5891022005  -0.2042564307  -2.5089872597
H  2.2866912072  0.3979823176  -1.6510073878
H  1.2305336804  2.1423534787  0.6600442144
H  1.5072830619  2.6582493431  -1.0194989224
H  2.8780087906  2.1597807932  0.0111843149
H  2.3814771824  -2.1134307005  -1.2371208890
H  1.0319365155  -2.2538906141  -0.1095615793
H  2.6850958546  -2.6413258541  0.4610712311