35
charge=0, multiplicity=1, basis=def2-QZVPPD, AUX_BASIS_CORR=rimp2-def2-QZVPPD, SCF_ALGORITHM=GDM, xc_grid=000099000590, mem_total=60000, num_basis=1608, num_pairs=998487, num_threads=16
C  -1.6793649774  1.0830826791  0.4844310225
C  -2.9806255334  1.5998353933  0.4358781808
C  -4.0358920101  0.8127190283  -0.0239166229
C  -3.7924311719  -0.4963790248  -0.4472188701
C  -2.4917075404  -1.0064939095  -0.3913698652
C  -1.4111202601  -0.2483372255  0.0800232258
O  -0.7084106213  1.9397465308  0.9476582614
C  0.0100175432  -0.8372879710  0.2376101894
C  1.0129043088  0.1012573080  -0.4883340017
C  2.2481181744  0.4648517111  -0.0652417143
C  0.4986822715  0.5726172629  -1.8464425331
C  3.0950812714  1.4584706698  -0.8408087272
C  2.9697317220  -0.0732795227  1.1614852271
C  0.1533519298  -2.2321305403  -0.4141581768
H  0.1711994884  1.5743712809  0.7285731337
C  0.1970309142  -1.0227142332  1.7697182530
H  -3.1399661109  2.6265856956  0.7574468117
H  -5.0421890636  1.2259702676  -0.0570321317
H  -4.6039393340  -1.1186303324  -0.8182134035
H  -2.3188533309  -2.0268772728  -0.7218745366
H  1.3059246234  0.6508915225  -2.5817015760
H  -0.2470832884  -0.1282725836  -2.2354321368
H  0.0007280341  1.5503620812  -1.7791506654
H  2.5252488649  2.0641176099  -1.5503820311
H  3.8951852421  0.9391287987  -1.3932736782
H  3.5941265770  2.1400127340  -0.1371025804
H  2.9276608332  -1.1660482749  1.2144250478
H  4.0276211705  0.2140220845  1.1226313403
H  2.5591807761  0.3188429463  2.1005334491
H  1.1842347766  -2.5801063482  -0.2784750890
H  -0.5197912418  -2.9575657423  0.0605040707
H  -0.0667495691  -2.2039362155  -1.4875736426
H  1.0795123142  -1.6207153104  2.0098033778
H  0.2637044389  -0.0632534441  2.2925131396
H  -0.6811212216  -1.5548576532  2.1544672519