30
charge=0, multiplicity=1, basis=def2-QZVPPD, AUX_BASIS_CORR=rimp2-def2-QZVPPD, SCF_ALGORITHM=GDM, xc_grid=000099000590, mem_total=60000, num_basis=1596, num_pairs=861120, num_threads=16
C  -4.1824030830  1.2846779959  0.0000000000
C  -5.3257716062  0.4830674560  0.0000000000
C  -5.2076029383  -0.9207430185  0.0000000000
C  -3.9624021821  -1.5592777255  0.0000000000
C  -2.8249915746  -0.7489944117  0.0000000000
C  -2.9292214903  0.6649590335  0.0000000000
C  -1.5663029394  1.2136435089  0.0000000000
C  -0.6837398601  0.0028845251  0.0000000000
N  -1.4851750640  -1.1187977609  0.0000000000
O  -1.1724224029  2.3850586332  0.0000000000
C  0.6837398601  -0.0028845251  0.0000000000
N  1.4851750640  1.1187977609  0.0000000000
C  2.8249915746  0.7489944117  0.0000000000
C  2.9292214903  -0.6649590335  0.0000000000
C  1.5663029394  -1.2136435089  0.0000000000
C  3.9624021821  1.5592777255  0.0000000000
C  5.2076029383  0.9207430185  0.0000000000
C  5.3257716062  -0.4830674560  0.0000000000
C  4.1824030830  -1.2846779959  0.0000000000
O  1.1724224029  -2.3850586332  0.0000000000
H  -4.2480941769  2.3706623455  0.0000000000
H  -6.3130760742  0.9385476180  0.0000000000
H  -6.1097721832  -1.5295473282  0.0000000000
H  -3.8864631714  -2.6443946366  0.0000000000
H  -1.1029769252  -2.0567811907  0.0000000000
H  1.1029769252  2.0567811907  0.0000000000
H  3.8864631714  2.6443946366  0.0000000000
H  6.1097721832  1.5295473282  0.0000000000
H  6.3130760742  -0.9385476180  0.0000000000
H  4.2480941769  -2.3706623455  0.0000000000