35
charge=0, multiplicity=1, basis=def2-QZVPPD, AUX_BASIS_CORR=rimp2-def2-QZVPPD, SCF_ALGORITHM=GDM, xc_grid=000099000590, mem_total=60000, num_basis=1608, num_pairs=988773, num_threads=16
C  -1.5103103660  0.6260610165  0.2649740909
C  -2.6479881956  0.7064982783  1.0899495042
C  -3.8460464994  0.1109620384  0.6998601750
C  -3.9359914484  -0.5786554992  -0.5165844033
C  -2.8059415810  -0.6583074867  -1.3331947198
C  -1.5959400105  -0.0633021447  -0.9565206757
O  -0.3981171440  1.2420964787  0.7697434871
C  0.8929041119  1.2400846301  0.0720580784
C  1.3965105134  -0.1741421357  -0.2887799338
C  1.2212393810  -1.2519710111  0.5055561182
C  0.5552881297  -1.2431279659  1.8652903410
C  1.6565645407  -2.6529315008  0.1165231311
C  2.1630787254  -0.2369838519  -1.5936996149
C  0.7546687535  2.1959603185  -1.1324858733
C  1.8563810673  1.8776487487  1.0858226699
H  -2.5671025427  1.2397578536  2.0344196329
H  -4.7146648045  0.1848074481  1.3520207667
H  -4.8705725964  -1.0450281445  -0.8199701998
H  -2.8557129654  -1.1911783892  -2.2813941761
H  -0.7319761705  -0.1586771984  -1.6012140374
H  -0.4606216350  -1.6599245385  1.7872577671
H  0.4704551168  -0.2539986591  2.3136449256
H  1.1175942013  -1.8987803708  2.5468218176
H  1.7856977390  -2.7979770839  -0.9598798413
H  2.6006580214  -2.9222931806  0.6165908401
H  0.9025642690  -3.3754576372  0.4595753620
H  2.6811847178  -1.1875533773  -1.7345909848
H  2.9261145861  0.5537778658  -1.6245912763
H  1.5088941154  -0.0682753572  -2.4628453040
H  0.0973860753  1.7959310127  -1.9089122443
H  1.7323786983  2.4089441129  -1.5766113781
H  0.3275435624  3.1356047863  -0.7658770380
H  1.9322781943  1.2626941435  1.9870782157
H  1.5100116586  2.8827003377  1.3582676772
H  2.8515897806  1.9550364628  0.6316971004