32
charge=0, multiplicity=1, basis=def2-QZVPPD, AUX_BASIS_CORR=rimp2-def2-QZVPPD, SCF_ALGORITHM=GDM, xc_grid=000099000590, mem_total=60000, num_basis=1539, num_pairs=938581, num_threads=16
C  -1.3460347994  1.1313446009  -0.3973817924
C  -2.4439855320  0.9449338454  0.3520474251
C  -3.2720886355  -0.3159085846  0.3229313363
C  -2.5365795657  -1.5620232254  -0.2762491774
C  -1.0555836878  -1.3009488380  -0.5885431868
C  -0.9299754011  0.0367008126  -1.3611628779
C  2.9493385393  0.9735550264  0.2282102440
C  1.6237518807  0.6329703872  0.5409661362
C  1.2436329787  -0.7212995902  0.4121956344
C  2.1716542424  -1.6781974271  -0.0210923736
C  3.4881327056  -1.3165567117  -0.3189156092
C  3.8770257608  0.0192476998  -0.1973819509
C  -0.3509017430  2.2184325038  -0.0819381442
C  0.6706246258  1.7256696141  0.9924562720
C  -0.1720249552  -1.2107066642  0.6679778485
O  -0.5465852318  -1.5359924045  1.7793470823
H  -2.7054816402  1.6919050172  1.1043193185
H  -3.5766455322  -0.5346402891  1.3550097763
H  -4.2070671540  -0.1492089019  -0.2347670803
H  -3.0203576820  -1.8604260094  -1.2146366667
H  -2.6196087979  -2.4005493505  0.4235156995
H  -0.6483608243  -2.1231883328  -1.1993687385
H  0.0916621725  0.1961096365  -1.7190328446
H  -1.5884649581  0.0007824971  -2.2408752918
H  3.2563062790  2.0139566413  0.3307925895
H  1.8614146287  -2.7180273070  -0.1159121774
H  4.2009411604  -2.0729447872  -0.6412966946
H  4.8979793042  0.3180102598  -0.4271756593
H  0.1928117486  2.5376734992  -0.9826205773
H  -0.8671617435  3.0947195245  0.3327496747
H  0.0925411955  1.3775693657  1.8579174727
H  1.2690906614  2.5870374920  1.3179143332