28
charge=0, multiplicity=1, basis=def2-QZVPPD, AUX_BASIS_CORR=rimp2-def2-QZVPPD, SCF_ALGORITHM=GDM, xc_grid=000099000590, mem_total=60000, num_basis=1410, num_pairs=754916, num_threads=16
C  -0.3221799951  2.3985552121  0.0027921423
C  -0.1277660000  0.9875647705  0.5860069254
C  -1.2755071106  0.0545198948  0.2098079494
C  -1.2507896815  -0.7026351736  -0.9688206682
C  -2.3284545579  -1.5264733541  -1.3037748188
C  -3.4432501869  -1.6059509077  -0.4621797271
C  -3.4742783376  -0.8546053324  0.7167661165
C  -2.3957143682  -0.0296184521  1.0483271593
H  -0.3822981402  -0.6524573552  -1.6200332847
H  -2.2957339090  -2.1100288523  -2.2219929650
H  -4.2800545610  -2.2515778801  -0.7217891780
H  -4.3360751145  -0.9111538935  1.3791739969
H  -2.4227288572  0.5612778381  1.9622430582
C  1.2532519855  0.4161291953  0.2925882048
C  1.8853830821  -0.3395855827  1.2925486544
C  3.1350547474  -0.9223089607  1.0721584630
C  3.7775295135  -0.7551151664  -0.1596332325
C  3.1587717990  -0.0036448303  -1.1622071256
C  1.9041758437  0.5757901343  -0.9408473254
H  1.3855052096  -0.4737562365  2.2510389545
H  3.6077065601  -1.5042330552  1.8611629343
H  4.7524599737  -1.2057104654  -0.3346998490
H  3.6504446386  0.1330362490  -2.1235776718
H  1.4344931350  1.1499317192  -1.7339786428
H  -0.1815839539  1.1501684925  1.6709619830
H  0.5510641424  3.0438419184  0.1719103347
F  -0.5642314807  2.3747232635  -1.3571921704
F  -1.4151943761  3.0033168105  0.5932397826