39
charge=0, multiplicity=1, basis=def2-QZVPPD, mem_total=120000, AUX_BASIS_CORR=rimp2-def2-QZVPPD, SCF_ALGORITHM=GDM, xc_grid=000099000590, num_basis=1980, num_pairs=1367422, num_threads=32
N  -0.4095506322  1.8859540667  2.5314593020
C  -0.5077935320  1.2717105562  1.5511253137
C  -0.6366021701  0.5228886744  0.2887772552
C  -0.0916431829  -0.9119706903  0.4297615972
C  -0.4228743891  -1.8514359864  -0.5572576686
C  0.1429502672  -3.1275685796  -0.5391114876
C  1.0448978037  -3.4818182557  0.4709945104
C  1.3724048997  -2.5509842469  1.4595744663
C  0.8100287239  -1.2703382483  1.4376306743
H  -1.1309358333  -1.5822013943  -1.3380315103
H  -0.1233017935  -3.8463885356  -1.3116486367
H  1.4868053634  -4.4759625243  0.4862076110
H  2.0738781046  -2.8147869639  2.2483575095
H  1.0861740141  -0.5469339139  2.2009699286
C  -2.1442549066  0.5017019994  -0.0637842522
C  -2.6656037466  1.0882264104  -1.2218004052
C  -4.0375207599  1.0148501220  -1.4979673853
C  -4.8999143903  0.3598923161  -0.6176684558
C  -4.3844849734  -0.2241448351  0.5464550703
C  -3.0190705215  -0.1543160578  0.8176382378
H  -2.0172497552  1.6061905151  -1.9220024580
H  -4.4263492534  1.4744099245  -2.4045366079
H  -5.9650676731  0.3050990047  -0.8330299685
H  -5.0471931941  -0.7354577955  1.2417294129
H  -2.6179224110  -0.6142915472  1.7183307699
C  0.2238648756  1.2726518994  -0.8030143747
C  1.7039023746  1.2914295049  -0.5103035572
C  2.5203488723  0.2435435750  -0.9600235148
C  3.8723950353  0.2553905309  -0.6380327397
C  4.4532877816  1.2710003331  0.1170860574
C  3.6320345345  2.3125401492  0.5607050671
C  2.2690171326  2.3249459623  0.2505032443
H  2.1088022485  -0.5830896667  -1.5323877710
F  4.6557106230  -0.7695009767  -1.0744050782
H  5.5155867376  1.2388115345  0.3438784063
H  4.0606726683  3.1179425016  1.1530217606
H  1.6361702255  3.1323037242  0.6104410270
H  0.0343238693  0.7528043610  -1.7482578625
H  -0.1559230375  2.2969025526  -0.8913834877