42
charge=0, multiplicity=1, basis=def2-QZVPPD, AUX_BASIS_CORR=rimp2-def2-QZVPPD, SCF_ALGORITHM=GDM, xc_grid=000099000590, mem_total=120000, num_basis=1929, num_pairs=1469125, num_threads=32
C  0.8365241843  0.1317128623  1.2675119789
C  1.5571150535  -0.3923438849  0.0000000000
C  0.8365241843  0.1317128623  -1.2675119789
C  -0.6591671767  -0.1445228950  -1.2633200500
C  -1.3316250820  0.3773493292  0.0000000000
C  -0.6591671767  -0.1445228950  1.2633200500
C  1.5754224330  -1.9242014385  0.0000000000
O  2.9510544221  -0.0225482230  0.0000000000
C  1.6196298089  0.0982583207  -2.5537422808
C  1.2840678401  1.4260694044  -1.9090414358
C  -1.1617885749  -1.4398566602  -1.8613713842
C  -1.4083228640  -0.1308022159  -2.5739831178
C  -2.8145714061  0.6549943549  0.0000000000
C  -1.8313899426  1.8044405776  0.0000000000
C  -1.1617885749  -1.4398566602  1.8613713842
C  -1.4083228640  -0.1308022159  2.5739831178
C  1.2840678401  1.4260694044  1.9090414358
C  1.6196298089  0.0982583207  2.5537422808
H  0.5569682340  -2.3166531305  0.0000000000
H  2.0965353637  -2.2829280739  -0.8939111587
H  2.0965353637  -2.2829280739  0.8939111587
H  2.9975393330  0.9430487348  0.0000000000
H  0.5035912662  2.0257814106  2.3686562702
H  2.1023180007  2.0086953289  1.4886289763
H  2.6495603452  -0.2428937173  2.4660050096
H  1.1285055700  -0.1831012176  3.4839624044
H  -0.4310787780  -2.1111152523  2.2924700721
H  -2.0148108905  -1.9129452843  1.3797790682
H  -2.4200486110  0.2760596541  2.5968400328
H  -0.8508066106  0.0796440204  3.4835064803
H  -3.3833449095  0.4651611202  0.9043305755
H  -3.3833449095  0.4651611202  -0.9043305755
H  -1.7216204864  2.3747400349  -0.9252222946
H  -1.7216204864  2.3747400349  0.9252222946
H  -2.0148108905  -1.9129452843  -1.3797790682
H  -0.4310787780  -2.1111152523  -2.2924700721
H  -0.8508066106  0.0796440204  -3.4835064803
H  -2.4200486110  0.2760596541  -2.5968400328
H  1.1285055700  -0.1831012176  -3.4839624044
H  2.6495603452  -0.2428937173  -2.4660050096
H  2.1023180007  2.0086953289  -1.4886289763
H  0.5035912662  2.0257814106  -2.3686562702