44
charge=0, multiplicity=1, basis=def2-QZVPPD, AUX_BASIS_CORR=rimp2-def2-QZVPPD, SCF_ALGORITHM=GDM, xc_grid=000099000590, mem_total=120000, num_basis=2355, num_pairs=1561415, num_threads=32
N  2.0171868800  1.2740442855  0.0201554219
C  1.5474874258  0.0699556789  0.3977434059
C  0.2546810288  -0.0862709260  0.9107607535
C  -0.6797490352  0.9797025043  0.9841898236
C  -2.1350479883  0.6200235598  1.4725448298
O  -0.4808954651  2.1688963772  0.6746136091
C  -3.1132326412  0.3990291370  0.2515293763
C  -4.5369641735  -0.2102638394  0.6052439336
C  -5.5718559164  0.0216442631  -0.5376008277
C  -6.9680655337  -0.6247015750  -0.3048968421
C  2.4259103971  -1.1254811389  0.3054596469
C  3.7337028825  -1.0998174134  0.8216537094
C  4.5353151105  -2.2411736335  0.7711939989
C  4.0437625642  -3.4194280705  0.1972258344
C  2.7437400573  -3.4527229061  -0.3183808985
C  1.9361212681  -2.3145332667  -0.2600961628
H  4.1077930440  -0.1875972250  1.2799876860
H  5.5409948618  -2.2137758609  1.1857404379
H  4.6700709222  -4.3082134797  0.1559911891
H  2.3571739315  -4.3658237547  -0.7661780982
H  0.9251157160  -2.3342333087  -0.6603797107
C  3.1667168114  1.5698382283  -0.8479298326
C  2.6556516655  2.1703290683  -2.1668251681
C  4.1345885414  2.5201053708  -0.1310154569
H  3.6756254022  0.6258495462  -1.0602482907
H  4.9880581615  2.7497303858  -0.7812988045
H  3.6283723456  3.4620386219  0.1188578295
H  4.5084112345  2.0724491043  0.7974989343
H  3.5012463390  2.3976895890  -2.8282359652
H  1.9836158687  1.4703378441  -2.6771455747
H  2.1073109775  3.1023383345  -1.9746215256
H  1.3357528432  2.0316706758  0.1471366588
H  -0.0309289890  -1.0703263236  1.2583585512
F  -2.1515023546  -0.5315647478  2.2253785946
F  -2.6131676178  1.6308535039  2.2471359153
F  -3.3149261385  1.6018166962  -0.3628091008
F  -2.4998673590  -0.4393770395  -0.6321049321
F  -5.0102665067  0.4112188067  1.7249591548
F  -4.3956629382  -1.5354106314  0.8708847730
H  -5.7275321705  1.1017333059  -0.6359577783
F  -5.0713628741  -0.4791577184  -1.7237371599
F  -7.7759969668  -0.2805351178  -1.3391609993
F  -6.9163908734  -1.9680587535  -0.2484947280
F  -7.5309907386  -0.1628281570  0.8328737889