81
charge=0, multiplicity=1, basis=def2-QZVPPD, mem_total=700000, AUX_BASIS_CORR=rimp2-def2-QZVPPD, SCF_ALGORITHM=GDM, xc_grid=000099000590, num_basis=3606, num_pairs=3563750, num_threads=128
C  -4.6432772000  2.4758772000  0.4890827000
C  -5.8123165000  1.5069152000  0.3896384000
C  -5.4434607000  0.3138730000  -0.5680113000
C  -3.8899304000  0.1013410000  -0.6486610000
C  -3.0954735000  0.3601888000  0.6675316000
C  -3.3602599000  1.8521893000  1.0849746000
C  -3.4895161000  -1.2372279000  -1.2746682000
C  -2.0152004000  -1.1977607000  -1.6798118000
C  -1.1241792000  -0.5796300000  -0.6296873000
C  -1.5884082000  0.1284371000  0.4225384000
C  -6.2147789000  -0.9602961000  -0.1740030000
C  -5.9182807000  0.7259445000  -1.9803267000
C  -0.6596103000  0.6620104000  1.5152699000
C  0.8650100000  0.4380250000  1.3281626000
C  1.1279545000  -0.8200011000  0.5061121000
C  0.3752580000  -0.6875270000  -0.8596046000
C  2.5862213000  -1.0416739000  0.0454554000
C  2.4350568000  -1.9899524000  -1.1896474000
C  0.9379637000  -1.9055630000  -1.6338573000
C  3.6104350000  -1.4391826000  1.1451322000
C  4.9669140000  -0.7446761000  0.8916044000
C  4.9507794000  0.7624807000  1.2316814000
C  6.2003991000  1.4759258000  0.7828305000
C  6.4063585000  2.0280180000  -0.4241181000
C  3.8266799000  -2.9512858000  1.3235312000
C  7.7172253000  2.6889688000  -0.7757738000
C  5.3801343000  2.0382254000  -1.5319620000
O  -6.1759299000  1.1379962000  1.7373943000
C  0.7636522000  0.5828127000  -1.6743227000
C  0.6289860000  -2.0450879000  1.3096430000
H  3.2195115000  -1.0482544000  2.0979183000
H  -3.5257180000  0.8772372000  -1.3413416000
C  -3.5344190000  -0.5890847000  1.8118627000
H  -4.9401981000  3.3500658000  1.0816901000
H  -4.4365584000  2.8313765000  -0.5289641000
H  -6.6759051000  2.0300430000  -0.0554938000
H  -3.3934969000  1.9205067000  2.1783903000
H  -2.5246965000  2.4796469000  0.7523099000
H  -4.1105739000  -1.4569492000  -2.1523532000
H  -3.6547751000  -2.0502618000  -0.5570102000
H  -1.6598473000  -2.2137261000  -1.9010919000
H  -1.9047736000  -0.6334162000  -2.6222324000
H  -5.8934506000  -1.3586283000  0.7918665000
H  -7.2937701000  -0.7463667000  -0.1252168000
H  -6.0750837000  -1.7406431000  -0.9303818000
H  -5.4874300000  1.6946449000  -2.2670383000
H  -5.6135426000  -0.0168933000  -2.7276297000
H  -7.0129789000  0.8132263000  -2.0090192000
H  -0.9626293000  0.1853071000  2.4583319000
H  -0.8378991000  1.7328865000  1.6722214000
H  1.3202774000  1.3009146000  0.8274247000
H  1.3418901000  0.3611171000  2.3153990000
H  2.9192732000  -0.0712705000  -0.3384915000
H  3.1097938000  -1.6826678000  -1.9973946000
H  2.6913838000  -3.0229533000  -0.9372908000
H  0.4066077000  -2.8209515000  -1.3504722000
H  0.8305139000  -1.7892627000  -2.7189245000
H  5.2445265000  -0.8740395000  -0.1649520000
H  5.7553168000  -1.2313455000  1.4842020000
H  4.0642098000  1.2262026000  0.7815314000
H  4.8321254000  0.8687730000  2.3197806000
H  7.0252738000  1.5046078000  1.4986801000
H  4.4389187000  -3.1350743000  2.2165184000
H  4.3605701000  -3.3728192000  0.4611561000
H  2.8819661000  -3.4933695000  1.4360994000
H  8.4234691000  2.6573099000  0.0629502000
H  8.1838607000  2.1962263000  -1.6435176000
H  7.5605001000  3.7417868000  -1.0597041000
H  4.4529873000  1.5231835000  -1.2612004000
H  5.7893389000  1.5525096000  -2.4314372000
H  5.1320397000  3.0717643000  -1.8204128000
H  -6.9570709000  0.5728285000  1.6789182000
H  0.5404111000  1.5008458000  -1.1221397000
H  0.1678745000  0.5939476000  -2.5963304000
H  1.8209352000  0.5872253000  -1.9667371000
H  -0.4419269000  -1.9707129000  1.5196925000
H  1.1690296000  -2.0948601000  2.2629855000
H  0.8062660000  -2.9835592000  0.7749154000
H  -4.5616304000  -0.3810019000  2.1154575000
H  -2.8987245000  -0.4370521000  2.6918312000
H  -3.4401776000  -1.6383841000  1.5085172000