32
charge=0, multiplicity=1, basis=def2-QZVPPD, AUX_BASIS_CORR=rimp2-def2-QZVPPD, SCF_ALGORITHM=GDM, xc_grid=000099000590, mem_total=60000, num_basis=1416, num_pairs=823898, num_threads=16
C  -2.9560049898  -0.5899730143  -0.5483129187
C  -1.8200748914  0.3447126275  -1.0324906952
C  -0.4710595846  -0.4076916361  -0.9015611307
C  -0.2545964091  -0.4641674764  0.6649347858
C  -1.5028769428  0.2736182824  1.2124384804
C  -2.7395823910  -0.6351789751  1.0062719055
C  -1.7353298583  1.3569372078  0.1340770472
C  0.6895666856  0.2981513058  -1.6145991853
C  2.0514828919  -0.3099946725  -1.2344750516
C  2.2583451761  -0.4388911531  0.3115526545
C  1.0763720063  0.1708446791  1.0856113514
C  3.5906434338  0.1784780910  0.7566262648
H  -2.8871154407  -1.5827987396  -1.0105011867
H  -3.9386087596  -0.1695004588  -0.7965856791
H  -1.9858926488  0.7676803152  -2.0303145682
H  -0.5615187008  -1.4244385067  -1.3088599216
H  -0.2541490281  -1.5086154610  1.0070887433
H  -1.3794377899  0.6321397106  2.2411441921
H  -2.5603776009  -1.6527110910  1.3758752146
H  -3.6115201980  -0.2315204373  1.5360906630
H  -0.9009355326  2.0614518117  0.0395056574
H  -2.6654678406  1.9207896029  0.2833693626
H  0.5443615983  0.2434434740  -2.7022523367
H  0.6805381804  1.3644287247  -1.3495740219
H  2.8526805267  0.3065366117  -1.6663558245
H  2.1394519738  -1.3032174547  -1.6967599035
H  2.2800565021  -1.5100800007  0.5629704728
H  1.2295058570  0.0289649425  2.1646792038
H  1.0469377905  1.2564998861  0.9102480904
H  3.5997879792  1.2564489498  0.5378865487
H  4.4362595412  -0.2804532557  0.2259985037
H  3.7485584644  0.0481061102  1.8362732818