48
charge=0, multiplicity=1, basis=def2-QZVPPD, mem_total=240000, AUX_BASIS_CORR=rimp2-def2-QZVPPD, SCF_ALGORITHM=GDM, xc_grid=000099000590, num_basis=2424, num_pairs=1842775, num_threads=64
C  1.4015399482  -0.6928925226  0.1419043075
C  1.0007603550  -2.0719000408  0.2745831204
C  1.6465642147  -3.3034524439  0.0521461864
C  0.9379842522  -4.4836573951  0.2639555284
C  -0.4106560509  -4.4634386419  0.6861429858
C  -1.0845730252  -3.2605408227  0.8915689386
C  -0.3619009000  -2.0842683643  0.6772251341
H  2.6803534311  -3.3276079507  -0.2831448491
H  1.4278007772  -5.4409359357  0.0973123450
H  -0.9352693810  -5.4033249485  0.8451313306
H  -2.1258750736  -3.2249751609  1.2003656393
N  -0.7746482127  -0.7672923129  0.7600657354
C  0.2912288106  0.0898431931  0.4379016740
C  0.1756402278  1.5479970682  0.5565090152
C  2.7273850682  -0.2157848407  -0.2733495291
C  3.8936943845  -0.8323299521  0.2203827010
C  5.1592822556  -0.3875667861  -0.1703334458
C  5.2862885514  0.6835852593  -1.0611816717
C  4.1343826065  1.3032366116  -1.5612955501
C  2.8700898848  0.8557934040  -1.1766036661
H  3.7996551622  -1.6508168755  0.9300974694
H  6.0481884175  -0.8746180337  0.2271696577
H  6.2719840020  1.0304887418  -1.3652703209
H  4.2218810039  2.1325087319  -2.2612087112
H  1.9784672592  1.3325781354  -1.5755634419
C  -0.8964197994  2.2608568913  -0.0139737229
C  -0.9713935829  3.6502034869  0.1155570146
C  0.0230992716  4.3502512307  0.8062723089
C  1.0966272679  3.6504142452  1.3712153751
C  1.1708962779  2.2628896088  1.2522002087
H  -1.6579021738  1.7312357082  -0.5785888493
H  -1.8048759939  4.1858141924  -0.3350171898
H  -0.0358895213  5.4326447251  0.9027828480
H  1.8750035155  4.1868439838  1.9105290595
H  2.0020327422  1.7171743099  1.6906497063
N  -2.0326978082  -0.4041880778  1.2067137078
C  -3.0524645395  -0.1982134153  0.2507077741
C  -4.2052140817  0.5044139503  0.6411071285
C  -5.2512614296  0.6854716213  -0.2632180676
C  -5.1657230292  0.1712903415  -1.5633317177
C  -4.0161737098  -0.5272191080  -1.9451226255
C  -2.9596627889  -0.7165705526  -1.0496932765
H  -4.2722854056  0.9098337494  1.6500005588
H  -6.1366868327  1.2356633605  0.0497118697
H  -5.9829527328  0.3143661134  -2.2663762253
H  -3.9336930357  -0.9319537174  -2.9520710003
H  -2.0687510449  -1.2594101521  -1.3517845222
H  -1.9838595344  0.2975593873  1.9372190543