44
charge=0, multiplicity=1, basis=def2-QZVPPD, mem_total=240000, AUX_BASIS_CORR=rimp2-def2-QZVPPD, SCF_ALGORITHM=GDM, xc_grid=000099000590, num_basis=2355, num_pairs=1799412, num_threads=64
C  -2.2060968344  -0.1500607643  0.8513769930
C  -1.9174217354  -0.1025948297  -0.7431349210
C  -3.2253016947  0.5681247096  -1.3118186500
C  -3.7480771978  1.5248666800  -0.1960353154
C  -3.5265998617  0.6979912373  1.1168728010
C  -0.6905397953  0.8150958376  -1.0285032322
C  0.6469060418  0.1933579302  -0.6188914779
C  1.5983762289  1.0858175978  0.1034848842
C  1.8746279183  2.3682478516  -0.4004927660
C  2.7569765380  3.2169525963  0.2709986261
C  3.3513710318  2.8042237280  1.4686072265
C  3.0636596638  1.5375402017  1.9882618760
C  2.1963734965  0.6804990705  1.3077743182
O  -1.7752358957  -1.3511826705  -1.3374679216
F  -3.0225410973  1.2359562329  -2.4824456846
F  -4.1831288507  -0.3737857954  -1.5310659270
F  -2.9727766629  2.6513433946  -0.1529023252
F  -5.0326140905  1.9008797892  -0.3712382700
F  -3.4071081176  1.4997781319  2.1995566482
F  -4.6086000115  -0.1066676111  1.3030416985
C  -2.2896166389  -1.5964628072  1.4458931917
F  -3.2131058173  -2.3572591574  0.8464931652
F  -1.1740335101  0.4652505029  1.5492466229
N  0.8412953836  -1.0269200502  -0.9583391623
C  2.0957822742  -1.7526128312  -0.7487232865
C  1.8767367537  -2.8627299692  0.2893450908
C  2.5212758156  -2.3433147836  -2.1015926695
F  -1.0854717638  -2.2045780114  1.3326244705
F  -2.5836811056  -1.5275197231  2.7695613176
H  2.8902566615  -1.0815018228  -0.3917590195
H  2.6792541543  -1.5494763967  -2.8419071619
H  3.4573327553  -2.9041323686  -1.9831265547
H  1.7467638781  -3.0235782744  -2.4783361774
H  1.5887804131  -2.4493157688  1.2622935183
H  1.0807552911  -3.5407841747  -0.0419810067
H  2.8028475110  -3.4387393598  0.4096180866
H  1.4058579664  2.6964699480  -1.3262910978
H  2.9738015449  4.2027347153  -0.1352679507
H  4.0295832302  3.4700564151  1.9982871004
H  3.5109659056  1.2181812136  2.9273524016
H  1.9572853216  -0.2960555465  1.7189898903
H  -0.8127600115  1.7856870919  -0.5496595503
H  -0.6810292940  0.9667375197  -2.1136644743
H  -0.7911257923  -1.5465196789  -1.3150353253