24
charge=0, multiplicity=1, basis=def2-QZVPPD, AUX_BASIS_CORR=rimp2-def2-QZVPPD, SCF_ALGORITHM=GDM, xc_grid=000099000590, mem_total=30000, num_basis=1170, num_pairs=561226, num_threads=8
C  3.0719739390  0.2664862405  -1.0660145480
O  4.0164887372  -0.4802251708  -1.1145502668
C  2.1498228706  0.4694683127  0.1350781808
O  2.6047221966  -0.2762241132  1.2483242495
C  0.7072694875  0.0550650422  -0.2707720379
H  0.4746156293  0.4932426536  -1.2519056049
C  -0.3436101638  0.5816172171  0.7320277776
O  -0.0051332938  0.2319606731  2.0897815345
C  -1.7778820248  0.0975420317  0.4212791483
H  -2.4668420935  0.6255574322  1.0916139093
C  -2.2210384827  0.3467061427  -1.0242470471
O  -3.6040459462  0.0557034399  -1.2037935329
H  2.7653814814  0.8916183231  -1.9444899041
H  2.1337752181  1.5585466757  0.3375121423
H  1.9252189700  -0.1331609393  1.9358889836
O  0.6359104397  -1.3744504302  -0.4243297607
H  -0.3244636860  1.6793369585  0.6786385034
H  -0.4828348666  -0.5949118449  2.2773011325
O  -1.9209780262  -1.2984441866  0.7615904583
H  -1.5981079255  -0.2606889987  -1.7040423804
H  -2.0867632765  1.4056279021  -1.2827172094
H  -3.7422677486  -0.8361144935  -0.8495185815
H  1.3086846224  -1.7495911198  0.1707960927
H  -1.2198960578  -1.7546677480  0.2565487607