51
charge=0, multiplicity=1, basis=def2-QZVPPD, mem_total=240000, AUX_BASIS_CORR=rimp2-def2-QZVPPD, SCF_ALGORITHM=GDM, xc_grid=000099000590, num_basis=2541, num_pairs=1983719, num_threads=64
C  -3.9758501491  -1.7740864092  -0.6285271619
C  -3.8737397396  -0.7089379847  0.3060734770
C  -2.6969969694  0.0345169615  0.4014796510
C  -1.6286514092  -0.2960854312  -0.4371938124
C  -1.7210959186  -1.3343195911  -1.3595395934
C  -2.8993235684  -2.0816496603  -1.4604022912
C  -0.4464410960  -1.4802130100  -2.1508735636
C  0.5931471705  -0.5825524193  -1.4182874017
C  -0.2770865193  0.4194852302  -0.5003517505
C  0.3343037162  0.5492648563  0.8694431837
C  0.6267769160  1.7549246261  1.3954523195
C  0.3371717054  3.0343339075  0.7200177405
C  -0.1838415999  2.9301363081  -0.6786335032
C  -0.4526722975  1.7219969228  -1.2183389683
N  1.5237785665  -1.3623542036  -0.6026013559
C  0.9229212538  -1.8957217516  0.6258528062
C  0.5980211754  -0.7416563289  1.6093792121
O  0.5032418164  4.1135729917  1.2938579993
O  -0.5078900100  4.0577840867  -1.3855977037
C  0.5440464559  5.0374684976  -1.5572574426
C  2.8754750215  -1.0972465465  -0.7171156259
O  3.5748221452  -1.6588864462  0.3169712238
C  5.0203876745  -1.5078067774  0.2439451818
C  5.6049373018  -2.1730978714  1.4780896703
O  -5.0079487860  -0.5131304869  1.0628476360
C  -4.9989204202  0.5730002726  1.9966060503
O  -5.1236876386  -2.5133889773  -0.7247796507
O  3.3943880034  -0.4768431399  -1.6307082943
H  -5.7632757565  -2.1579053573  -0.0869349281
H  1.0663400701  1.8414513183  2.3892145546
H  -0.8706064959  1.6724271996  -2.2230082684
H  0.1302760600  5.7892719585  -2.2364453866
H  0.8177666313  5.4929861165  -0.6006147053
H  1.4255837357  4.5684680010  -2.0207303223
H  -0.2924099144  -1.0170823617  2.1941128280
H  1.4248554311  -0.5909502312  2.3132259023
H  1.5935744544  -2.6239217616  1.0817012586
H  0.0010735520  -2.4085523041  0.3333472399
H  1.1916492467  -0.0053514909  -2.1222934168
H  -0.5793502967  -1.1285578891  -3.1839555093
H  -0.0878202863  -2.5159168488  -2.2065328048
H  -2.6034606021  0.8567370184  1.1053773609
H  -3.0028806018  -2.9011225929  -2.1683665144
H  -4.2129899164  0.4298332671  2.7532605696
H  -5.9823713382  0.5664163950  2.4738901818
H  -4.8363237075  1.5298805286  1.4791285017
H  5.2622999724  -0.4388254293  0.2010020147
H  5.3785393919  -1.9746799506  -0.6820920521
H  5.2329281181  -1.6955376512  2.3929100735
H  6.6983856731  -2.0782467225  1.4569002537
H  5.3489437785  -3.2393288373  1.5070951366