30
charge=0, multiplicity=1, basis=def2-QZVPP, mem_total=30000, AUX_BASIS_CORR=rimp2-def2-QZVPPD, SCF_ALGORITHM=GDM, xc_grid=000099000590, num_basis=1440, num_pairs=634237, num_threads=8
C  4.1367651173  1.3010072416  0.0000000000
C  2.8646104555  0.6843450684  0.0000000000
C  2.7285098925  -0.7639921769  0.0000000000
C  3.8841794976  -1.5576181728  0.0000000000
C  5.1267991292  -0.9234108577  0.0000000000
C  5.2604832626  0.4903226140  0.0000000000
C  1.5429266927  1.1598929300  0.0000000000
C  0.6963985023  -0.0366860466  0.0000000000
N  1.4105707897  -1.1809848348  0.0000000000
C  -0.6963985023  0.0366860466  0.0000000000
C  -1.5429266927  -1.1598929300  0.0000000000
C  -2.8646104555  -0.6843450684  0.0000000000
C  -2.7285098925  0.7639921769  0.0000000000
N  -1.4105707897  1.1809848348  0.0000000000
C  -4.1367651173  -1.3010072416  0.0000000000
C  -5.2604832626  -0.4903226140  0.0000000000
C  -5.1267991292  0.9234108577  0.0000000000
C  -3.8841794976  1.5576181728  0.0000000000
O  -1.0670020058  -2.3932085852  0.0000000000
O  1.0670020058  2.3932085852  0.0000000000
H  -4.2222096302  -2.3854622709  0.0000000000
H  -6.2539500757  -0.9314673545  0.0000000000
H  -6.0281289676  1.5341150488  0.0000000000
H  -3.8039560529  2.6422576020  0.0000000000
H  -0.0593324688  -2.3177202866  0.0000000000
H  0.0593324688  2.3177202866  0.0000000000
H  3.8039560529  -2.6422576020  0.0000000000
H  6.0281289676  -1.5341150488  0.0000000000
H  6.2539500757  0.9314673545  0.0000000000
H  4.2222096302  2.3854622709  0.0000000000