32
charge=0, multiplicity=1, basis=def2-QZVPPD, AUX_BASIS_CORR=rimp2-def2-QZVPPD, SCF_ALGORITHM=GDM, xc_grid=000099000590, mem_total=60000, num_basis=1416, num_pairs=863153, num_threads=16
C  0.0000000000  -1.2609476444  -1.2883148485
C  0.0000000000  0.0000000000  -2.1791786726
C  0.0000000000  1.2609476444  -1.2883148485
C  -1.2582240317  1.2557346934  -0.3954317729
C  -1.2791972448  0.0000000000  0.5078726824
C  -1.2582240317  -1.2557346934  -0.3954317729
C  1.2582240317  -1.2557346934  -0.3954317729
C  1.2582240317  1.2557346934  -0.3954317729
C  1.2791972448  0.0000000000  0.5078726824
C  0.0000000000  0.0000000000  1.3758592592
C  -2.5252159327  0.0000000000  1.3959684530
H  0.0000000000  -2.1605538957  -1.9193760185
H  0.8883659510  0.0000000000  -2.8275948902
H  -0.8883659510  0.0000000000  -2.8275948902
H  0.0000000000  2.1605538957  -1.9193760185
H  -1.2766207552  2.1567096985  0.2363443802
H  -2.1644124246  1.2684119764  -1.0196119128
H  -1.2766207552  -2.1567096985  0.2363443802
H  -2.1644124246  -1.2684119764  -1.0196119128
H  1.2766207552  -2.1567096985  0.2363443802
H  2.1644124246  -1.2684119764  -1.0196119128
H  1.2766207552  2.1567096985  0.2363443802
H  2.1644124246  1.2684119764  -1.0196119128
C  2.5252159327  0.0000000000  1.3959684530
H  0.0000000000  0.8877819926  2.0270634955
H  0.0000000000  -0.8877819926  2.0270634955
H  -3.4382834075  0.0000000000  0.7836831486
H  -2.5422297906  -0.8908440085  2.0398781477
H  -2.5422297906  0.8908440085  2.0398781477
H  3.4382834075  0.0000000000  0.7836831486
H  2.5422297906  0.8908440085  2.0398781477
H  2.5422297906  -0.8908440085  2.0398781477