41
charge=0, multiplicity=1, basis=def2-QZVPPD, AUX_BASIS_CORR=rimp2-def2-QZVPPD, SCF_ALGORITHM=GDM, xc_grid=000099000590, mem_total=120000, num_basis=1869, num_pairs=1259181, num_threads=32
C  -0.3835892650  0.1863420080  -0.1921001057
C  -1.1413952913  -0.3312609235  1.0630612088
C  -0.2835082044  -0.2106443746  2.3040352333
C  1.0043946896  0.1469106544  2.3220641168
C  1.8234701004  0.3675666463  1.0824852455
C  1.1249208261  -0.1900927198  -0.1670281205
C  1.8753468446  0.2748568748  -1.4423543471
C  3.3956872744  0.4470461055  -1.2044859350
C  3.8990601962  -0.5490646409  -0.1493159852
C  3.2319144905  -0.2788375565  1.2232250691
C  -2.5065744980  0.3967041999  1.2977902389
C  -3.3341978354  -0.3112245554  2.3876423168
C  -3.3712054448  0.5113740689  0.0301003706
C  -0.9605279266  -0.4048923308  -1.4709047962
O  -1.2064076364  -1.5810883444  -1.6440617645
O  -1.1093666707  0.5416736298  -2.4413919402
C  -1.5876237952  0.0526412115  -3.7182717789
H  -0.4573612002  1.2810301714  -0.2358200102
H  -1.3717128999  -1.3952509041  0.8912434695
H  -0.7784181390  -0.4057898034  3.2534170331
H  1.5208181441  0.2448681449  3.2789902407
H  1.4455724670  1.2237269495  -1.7896560033
H  1.7048007726  -0.4589977338  -2.2416442117
H  3.9392384648  0.3222687283  -2.1498691388
H  3.6010906504  1.4687923717  -0.8537911204
H  4.9916511825  -0.5003141581  -0.0551043490
H  3.6544000383  -1.5675255753  -0.4830799532
H  3.1357880280  -1.2223906734  1.7780351757
H  3.8618270173  0.3867128927  1.8296258046
H  -2.2716013107  1.4161283503  1.6426977246
H  -2.8303882748  -0.3367135927  3.3600390533
H  -3.5454244187  -1.3464288535  2.0831429326
H  -4.2944023759  0.2032572555  2.5244111954
H  -3.5597488158  -0.4814686548  -0.4001518784
H  -2.9036520361  1.1392727562  -0.7354054811
H  -4.3402762996  0.9609012461  0.2841476160
H  -1.6295555404  0.9310260280  -4.3671524400
H  -2.5812044940  -0.3969460263  -3.6040263548
H  -0.8988729064  -0.6992739680  -4.1212871279
H  1.1713752887  -1.2869194137  -0.1036177901
H  1.9656588034  1.4520245091  0.9343665868