8
charge=0, multiplicity=2, basis=def2-QZVPPD, AUX_BASIS_CORR=rimp2-def2-QZVPPD, SCF_ALGORITHM=GDM, xc_grid=000250000974, mem_total=3750, num_basis=390, num_pairs=71767, num_threads=1
C  0.0001560842  -0.1612433826  -1.5512987583
H  -0.0074886868  -1.2379417079  -1.7420665495
H  0.0074450936  0.4671210534  -2.4448983113
H  0.0008513838  -0.7102681048  2.7245943780
B  -0.0002132059  0.4373952235  -0.1512520691
O  0.0010858580  -0.5083102116  0.8559783730
H  -0.0017684110  1.6045968379  0.1202255485
O  -0.0000681158  0.1086502921  2.1887173888