3
charge=0, multiplicity=1, basis=def2-QZVPPD, mem_total=3750, AUX_BASIS_CORR=rimp2-def2-QZVPPD, SCF_ALGORITHM=GDM, xc_grid=000250000974, num_basis=102, num_pairs=5412, num_threads=1
Be  0.0000000000  0.0000000000  0.0000000000
H  0.0000000000  0.0000000000  -1.3440195222
H  0.0000000000  0.0000000000  1.3440195222