8
charge=0, multiplicity=2, basis=def2-QZVPPD, AUX_BASIS_CORR=rimp2-def2-QZVPPD, SCF_ALGORITHM=GDM, xc_grid=000250000974, mem_total=3750, num_basis=312, num_pairs=45545, num_threads=1
H  0.7797791373  -0.8695906703  2.3009606781
H  1.3668062320  0.8144415979  0.7921120556
S  -0.1523524027  0.0679905744  1.9848105118
H  -0.2932407455  1.7966704409  -1.1197604961
H  -0.3461403914  -1.5652033806  -1.5620748989
Li  0.2268428740  0.0232417085  -0.2450187371
H  -0.6232504272  -1.7332128136  -0.8762782530
H  -0.9584442766  1.4656625427  -1.2747508605