8
charge=0, multiplicity=1, basis=def2-QZVPPD, AUX_BASIS_CORR=rimp2-def2-QZVPPD, SCF_ALGORITHM=GDM, xc_grid=000250000974, mem_total=3750, num_basis=289, num_pairs=37985, num_threads=1
H  -0.4679423105  -0.1024362324  2.3284321870
H  -0.6628765320  0.0268021323  1.6109681441
H  -1.0211335950  1.9356170022  -0.8933892177
H  1.6744748156  0.1804483118  -0.4667807467
H  -0.7366453732  -1.1816369027  -1.3898060768
Na  -0.0696051468  -2.4089273493  -0.0992809937
H  -0.9870577705  1.1956754941  -1.0531870158
H  2.2707859126  0.3544575440  -0.0369562805