8
charge=0, multiplicity=1, basis=def2-QZVPPD, AUX_BASIS_CORR=rimp2-def2-QZVPPD, SCF_ALGORITHM=GDM, xc_grid=000250000974, mem_total=3750, num_basis=300, num_pairs=44569, num_threads=1
H  0.9861647146  1.0370490427  0.7394823662
H  0.8999666540  -0.6302444188  -1.6044051031
N  0.0354605153  0.9533044079  0.3709974766
H  -0.1409841541  1.7851230163  -0.2000322904
Be  0.1001318496  -2.3380742069  0.5734012680
Be  -0.0536470674  -0.4978593557  -0.6266893902
H  -0.6150509534  0.9651124079  1.1614821560
H  -1.2120415585  -1.2744108934  -0.4142364831