8
charge=0, multiplicity=1, basis=def2-QZVPPD, AUX_BASIS_CORR=rimp2-def2-QZVPPD, SCF_ALGORITHM=GDM, xc_grid=000250000974, mem_total=3750, num_basis=367, num_pairs=66048, num_threads=1
N  0.0002968609  -0.5211906974  -0.8447743289
H  -0.0005609196  -2.2177115367  0.7949982299
H  -1.4042415212  1.9286872001  0.0738749963
H  1.4040272145  1.9299146060  0.0719216259
H  -0.0014398598  -1.0422029947  -1.7147981206
B  0.0002098957  -1.0805339314  0.4160368133
Al  0.0000871946  1.1942691631  -0.1161643807
H  0.0016211349  -0.1912318090  1.3189051649