8
charge=0, multiplicity=2, basis=def2-QZVPPD, AUX_BASIS_CORR=rimp2-def2-QZVPPD, SCF_ALGORITHM=GDM, xc_grid=000250000974, mem_total=3750, num_basis=384, num_pairs=72300, num_threads=1
N  0.8521808996  0.0658115343  1.5429263267
C  -0.4543217292  0.0401585110  1.5112657539
H  0.5138873105  -1.0463038289  -1.1523109839
H  -1.2712772024  -0.2118129197  2.1923904038
H  0.9307512934  0.6143410570  -1.6299693497
C  0.0256288486  0.4373110336  0.2964214315
C  0.1767919690  0.0081739347  -1.1067716235
H  -0.7736413894  0.0923206779  -1.6539519589