8
charge=0, multiplicity=1, basis=def2-QZVPPD, AUX_BASIS_CORR=rimp2-def2-QZVPPD, SCF_ALGORITHM=GDM, xc_grid=000250000974, mem_total=3750, num_basis=354, num_pairs=61207, num_threads=1
H  -0.8585153692  1.4079464482  0.3664765590
H  0.0030936325  -1.2030681587  1.2321408908
N  -0.0006441277  1.6774180337  -0.1084244045
H  0.8306728314  1.4165253630  0.4159233326
C  0.0001802193  -0.6681593622  -0.8992669273
C  -0.0006814438  -1.4355270886  0.1661184216
H  0.0277622812  1.3089891314  -1.0641868225
H  -0.0018680238  -2.5041243668  -0.1087810497