8
charge=0, multiplicity=1, basis=def2-QZVPPD, AUX_BASIS_CORR=rimp2-def2-QZVPPD, SCF_ALGORITHM=GDM, xc_grid=000250000974, mem_total=3750, num_basis=343, num_pairs=54120, num_threads=1
S  0.5513470877  0.1599486920  1.8666151741
H  0.8267389487  0.2469231538  -0.5714169107
H  -1.7708638066  0.0321345898  -0.8964048816
H  -2.4619664184  0.1455192561  -0.6150221553
H  1.6367070982  -0.6296275884  2.0889179190
O  0.7681399280  0.0436137448  -1.5281496291
H  -0.2434607620  -0.9126080691  1.6075746251
H  0.6933579244  0.9140962211  -1.9521141415