8
charge=0, multiplicity=1, basis=def2-QZVPPD, AUX_BASIS_CORR=rimp2-def2-QZVPPD, SCF_ALGORITHM=GDM, xc_grid=000250000974, mem_total=3750, num_basis=337, num_pairs=51066, num_threads=1
H  -0.7838525276  -0.6445236981  -0.1866988100
C  0.2210904671  -1.0400206827  -0.0336401081
H  -2.7138392365  1.1845123863  -0.0683417727
H  0.2932520809  -2.1191527591  0.1067143909
H  1.5254105949  1.4570288819  -0.2050838277
Si  1.6114189630  -0.0207221484  -0.0139816181
H  -3.1438899334  1.7358401540  0.2077947041
H  2.9904095915  -0.5529621338  0.1932370416