8
charge=0, multiplicity=2, basis=def2-QZVPPD, AUX_BASIS_CORR=rimp2-def2-QZVPPD, SCF_ALGORITHM=GDM, xc_grid=000250000974, mem_total=3750, num_basis=367, num_pairs=65141, num_threads=1
H  -0.9099079282  1.0156581282  0.2347618653
Mg  0.6102275159  0.0008114284  1.1062431204
P  0.6920597455  0.0010841519  -1.7223754408
H  1.8004803468  -0.0073357863  -0.7392725016
B  -0.8965995350  0.0004346952  -0.5023457983
H  1.5244662187  0.0036227388  2.5331441555
H  -1.9109161743  0.0014609569  -1.1436506683
H  -0.9098101894  -1.0157363132  0.2334952678