8
charge=0, multiplicity=1, basis=def2-QZVPPD, AUX_BASIS_CORR=rimp2-def2-QZVPPD, SCF_ALGORITHM=GDM, xc_grid=000250000974, mem_total=3750, num_basis=392, num_pairs=74470, num_threads=1
H  -0.0589934510  -1.8799332179  -1.2232881069
C  0.2992745973  -1.0316859693  -0.6251295574
H  -1.5151502302  -0.7239385325  0.2958713681
H  1.3778291100  -0.8356866025  -0.7300352775
Na  -0.0232277766  1.7495715299  -0.9597342306
H  0.3159461675  2.2879425270  1.0172523901
C  -0.4744776374  -0.3471505295  0.2628742518
Al  0.0787992203  0.7808807948  1.9621891624