8
charge=0, multiplicity=1, basis=def2-QZVPPD, AUX_BASIS_CORR=rimp2-def2-QZVPPD, SCF_ALGORITHM=GDM, xc_grid=000250000974, mem_total=3750, num_basis=340, num_pairs=54083, num_threads=1
H  0.0161819949  -2.0731911797  -0.8381058308
P  0.0016831583  -0.7959103106  -0.0681215397
F  0.0022370360  2.7228328050  -0.0953094295
H  -0.0140906533  0.5322180819  0.7719912467
H  -1.4282661517  -0.6973898999  -0.1653722110
H  0.8227556201  -0.1336393962  -1.0419742314
H  -0.0061666827  1.8761714309  0.3648571097
H  0.6056656784  -1.4310915314  1.0720348861