8
charge=0, multiplicity=1, basis=def2-QZVPPD, AUX_BASIS_CORR=rimp2-def2-QZVPPD, SCF_ALGORITHM=GDM, xc_grid=000250000974, mem_total=3750, num_basis=447, num_pairs=95897, num_threads=1
C  0.0754445270  -1.0751757183  0.1159909930
H  -0.6296449252  2.2629816839  -0.0886766190
H  -1.6861481034  0.0577237755  -0.0463561002
C  -0.5949554010  0.0880607896  0.0225119125
C  0.7388713990  -2.1685537693  0.6544760853
C  0.0787790540  1.4048304313  -0.0132038923
C  0.7329985079  -2.1466275890  -0.6824183211
O  1.2846549417  1.5767603962  0.0376759418