8
charge=0, multiplicity=2, basis=def2-QZVPPD, AUX_BASIS_CORR=rimp2-def2-QZVPPD, SCF_ALGORITHM=GDM, xc_grid=000250000974, mem_total=3750, num_basis=373, num_pairs=55393, num_threads=1
H  -0.3380754901  -0.6161834050  -1.7173429425
H  -0.5160755133  -1.4169117193  3.5359017317
H  0.8545129536  0.8648014273  1.1147263117
F  -0.0661828685  -0.7846417532  3.0179412752
O  -0.0533446173  -1.0850106697  -2.5270022401
H  -0.2577416620  -0.4584657587  -3.2403643900
P  -0.1499321318  1.1506143035  0.1273254325
H  0.5268393294  2.3457975750  -0.3111851784