8
charge=0, multiplicity=2, basis=def2-QZVPPD, AUX_BASIS_CORR=rimp2-def2-QZVPPD, SCF_ALGORITHM=GDM, xc_grid=000250000974, mem_total=3750, num_basis=413, num_pairs=81381, num_threads=1
H  -2.0013380907  -0.5828731764  0.2987305779
P  -1.2004642172  0.2616511918  1.1322717668
H  1.4965342939  0.0501880647  -1.8334055945
B  0.4818482645  0.1702978101  0.2191650081
H  -0.3187162969  0.3479551465  -1.9274800290
H  -0.9990009986  -0.6547293838  2.2101786074
C  0.5590254747  0.2029127459  -1.2908434657
Cl  1.9821115703  0.2045976012  1.1913831289