8
charge=0, multiplicity=1, basis=def2-QZVPPD, AUX_BASIS_CORR=rimp2-def2-QZVPPD, SCF_ALGORITHM=GDM, xc_grid=000250000974, mem_total=3750, num_basis=370, num_pairs=61118, num_threads=1
H  1.5872029336  0.7673190806  -0.0814657648
Al  0.1097263938  -0.0021796446  -3.3390789966
C  0.8312626323  -0.0038614383  -0.3069932517
H  -0.0641823740  0.2039625036  0.3037548277
O  0.5121038920  -0.0035137356  -1.6739678673
H  -2.3708712084  -0.1377942865  2.7703523262
H  1.2361009932  -0.9828835947  0.0008751971
H  -1.8413432625  0.1589511156  2.3265235294