8
charge=0, multiplicity=2, basis=def2-QZVPPD, AUX_BASIS_CORR=rimp2-def2-QZVPPD, SCF_ALGORITHM=GDM, xc_grid=000250000974, mem_total=3750, num_basis=380, num_pairs=69103, num_threads=1
H  0.0138940970  0.7469748149  -2.8160301638
H  -1.1616119473  -1.3243787619  1.2281862087
H  0.0154038374  1.4223059320  -0.4977519073
H  1.2646671476  -1.1508929100  1.3385115300
P  -0.0031610709  -0.4435636224  -1.9977579668
Si  -0.0028342480  -0.3787603436  1.1075502376
N  -0.0071978834  0.4057112138  -0.4804921320
H  -0.1191599324  0.7226036771  2.1177841936