8
charge=0, multiplicity=1, basis=def2-QZVPPD, AUX_BASIS_CORR=rimp2-def2-QZVPPD, SCF_ALGORITHM=GDM, xc_grid=000250000974, mem_total=3750, num_basis=309, num_pairs=43379, num_threads=1
H  -1.7958697770  0.1947584105  -1.6371661234
H  -1.8724848755  0.2090124314  1.3244058352
Li  -0.3022062010  0.1892529475  -0.1154493613
H  2.1281693460  -1.1875521209  -0.3903655702
H  -1.1169683488  0.1892883956  -1.9772757814
H  -1.2128226741  0.1009665560  1.6869824661
P  2.0412291775  0.2373535043  -0.1620590375
H  2.1309533528  0.0669198756  1.2709275727