8
charge=0, multiplicity=2, basis=def2-QZVPPD, AUX_BASIS_CORR=rimp2-def2-QZVPPD, SCF_ALGORITHM=GDM, xc_grid=000250000974, mem_total=3750, num_basis=390, num_pairs=69867, num_threads=1
C  -1.0379239867  0.0226290619  1.1251406471
Mg  -0.8036651938  0.0042945719  -0.9869228834
H  -1.8094487127  0.0425407026  1.9110521585
H  -1.3221953202  -0.0334372826  -2.6248092643
F  0.2097429675  -0.0030054300  1.8288209736
H  1.3688806961  0.0085574160  0.3782385582
H  2.1288566865  -0.0650476685  -1.0305424337
O  1.2657528632  0.0234686288  -0.6009777561