8
charge=0, multiplicity=1, basis=def2-QZVPPD, AUX_BASIS_CORR=rimp2-def2-QZVPPD, SCF_ALGORITHM=GDM, xc_grid=000250000974, mem_total=3750, num_basis=357, num_pairs=63664, num_threads=1
H  0.1849529395  1.5300077726  0.0037939572
H  1.1395038873  -0.6410373817  1.0323127866
H  1.1402671131  -0.6412699345  -1.0321969588
B  0.4887820503  -0.7068092802  -0.0001991385
N  -0.4179235871  0.7015803819  -0.0001904554
H  -1.0228391867  0.7372852469  0.8270840613
H  -1.0184854626  0.7421519239  -0.8304454116
F  -0.4942577537  -1.7219087289  -0.0001588409