5
charge=0, multiplicity=1, basis=def2-QZVPPD, mem_total=3750, AUX_BASIS_CORR=rimp2-def2-QZVPPD, SCF_ALGORITHM=GDM, xc_grid=000250000974, num_basis=195, num_pairs=19452, num_threads=1
C  0.0000000000  0.0000000000  0.0000000000
H  0.6330716102  0.6330716102  -0.6330716102
H  -0.6330716102  -0.6330716102  -0.6330716102
H  0.6330716102  -0.6330716102  0.6330716102
H  -0.6330716102  0.6330716102  0.6330716102