8
charge=0, multiplicity=1, basis=def2-QZVPPD, AUX_BASIS_CORR=rimp2-def2-QZVPPD, SCF_ALGORITHM=GDM, xc_grid=000250000974, mem_total=3750, num_basis=397, num_pairs=74847, num_threads=1
H  0.0561004058  2.0101764391  1.0186792473
H  0.6529624759  -3.1323542585  -0.0317044101
H  -1.3402793709  1.0760694325  -0.0255123958
Mg  -1.1841266317  -0.8821040462  0.0525477758
H  0.1034777166  1.9612898261  -1.0482710631
C  0.5349092785  -2.0461135248  -0.0192947148
B  -0.0986864353  1.3853018452  -0.0045952138
Al  1.2756425611  -0.3722657133  0.0581507746