8
charge=0, multiplicity=1, basis=def2-QZVPPD, AUX_BASIS_CORR=rimp2-def2-QZVPPD, SCF_ALGORITHM=GDM, xc_grid=000250000974, mem_total=3750, num_basis=354, num_pairs=61072, num_threads=1
H  -0.4312711728  0.9146735078  1.7210694078
H  -1.0508045256  0.0007770274  -2.2250491044
C  -0.0479919265  0.0008212950  1.2339495149
H  -0.4486355929  -0.9075260452  1.7175699382
H  1.0455846982  0.0014476645  -2.1184102602
B  -0.0341870291  0.0002814700  -1.5745567001
H  1.0469180296  -0.0120179132  1.4392888252
C  -0.0796124808  0.0015429937  -0.1938616214