8
charge=0, multiplicity=2, basis=def2-QZVPPD, AUX_BASIS_CORR=rimp2-def2-QZVPPD, SCF_ALGORITHM=GDM, xc_grid=000250000974, mem_total=3750, num_basis=367, num_pairs=63770, num_threads=1
Al  -0.5849661425  -0.0797011370  2.3395643754
N  -0.5843047391  0.0064913642  -0.7817869720
H  2.6470893517  -0.3519826000  0.1768445122
H  -1.0868170720  0.0420025202  -1.6640569884
C  -1.2006131033  -0.0075640679  0.4335997621
H  0.4267640488  -0.0283130168  -0.8545692919
H  -2.2983590224  0.0318330644  0.3122397680
H  2.6812066788  0.3872338730  0.0381648346