8
charge=0, multiplicity=1, basis=def2-QZVPPD, AUX_BASIS_CORR=rimp2-def2-QZVPPD, SCF_ALGORITHM=GDM, xc_grid=000250000974, mem_total=3750, num_basis=324, num_pairs=51148, num_threads=1
H  1.0684465655  -0.5804655981  -0.7419608219
H  0.4116600366  2.3327266012  -0.1366111668
N  0.6624311467  -1.0191619228  0.0905114317
H  1.0678426717  -0.5671011368  0.9104617137
H  -1.0821411522  0.0010004252  -0.3081337893
H  -0.1777312258  2.3348425587  0.3308798392
H  -1.1887483208  -1.6500932344  -0.3076837514
N  -0.7617597216  -0.8517476929  0.1625365448