8
charge=0, multiplicity=1, basis=def2-QZVPPD, AUX_BASIS_CORR=rimp2-def2-QZVPPD, SCF_ALGORITHM=GDM, xc_grid=000250000974, mem_total=3750, num_basis=367, num_pairs=64806, num_threads=1
H  0.9805453129  2.7436328697  0.0028321654
H  0.0416194996  -2.4273703503  0.0007337970
H  1.6667807623  -0.6096054167  -0.0008807253
C  -0.2728699968  -1.3766456593  0.0001384077
H  -1.6233559327  1.7299644329  -0.0026809105
Al  -0.0357138330  1.5044290186  -0.0001224710
C  0.5997719075  -0.3500472975  -0.0006844564
H  -1.3567777198  -1.2143575973  0.0006641931