8
charge=0, multiplicity=1, basis=def2-QZVPPD, AUX_BASIS_CORR=rimp2-def2-QZVPPD, SCF_ALGORITHM=GDM, xc_grid=000250000974, mem_total=3750, num_basis=430, num_pairs=89097, num_threads=1
H  -1.2013533581  -0.3497718033  1.9513758103
H  -1.6069984569  0.5129252948  -0.7308737451
C  -0.5189933692  -0.1100270783  1.1444133686
C  -0.7839150744  -0.0717735725  -0.2970128083
H  2.2804094974  0.7715631307  0.8432996915
F  0.4481256698  -0.0187032003  -2.3483685632
Si  1.1328313627  -0.1535956121  0.5445215471
C  0.2498937285  -0.5806171590  -1.1073553009