8
charge=0, multiplicity=1, basis=def2-QZVPPD, mem_total=3750, AUX_BASIS_CORR=rimp2-def2-QZVPPD, SCF_ALGORITHM=GDM, xc_grid=000250000974, num_basis=356, num_pairs=58446, num_threads=1
H  -0.9197512672  0.3428980836  -2.2917704476
B  0.0038597904  0.8331781270  -0.3442576612
C  0.0003255894  0.3792178584  -1.6917747611
Mg  0.0012075511  0.2454468855  1.9542026261
H  -0.0011123968  -1.5786408302  1.4425325662
Li  0.0030321050  -1.5007162653  -0.3017921622
H  0.9128058665  0.3460441411  -2.3030429721
H  -0.0003672385  0.9325720000  3.5359028119