8
charge=0, multiplicity=1, basis=def2-QZVPPD, AUX_BASIS_CORR=rimp2-def2-QZVPPD, SCF_ALGORITHM=GDM, xc_grid=000250000974, mem_total=3750, num_basis=365, num_pairs=58992, num_threads=1
H  -0.0374968746  -0.3958659670  -2.4759072287
Na  0.2523032624  -0.3746658068  0.0269884197
O  0.0928389011  1.5006655536  -1.0298812897
Si  0.1548025646  2.4985642879  0.2431315340
H  -0.4179310219  -2.0375207797  2.0723725976
H  -0.3090585040  -1.3327946625  2.3262627691
H  -0.0379131498  -1.1418321815  -2.6221379204
H  0.3024548221  1.2834495560  1.4591711183