8
charge=0, multiplicity=1, basis=def2-QZVPPD, AUX_BASIS_CORR=rimp2-def2-QZVPPD, SCF_ALGORITHM=GDM, xc_grid=000250000974, mem_total=3750, num_basis=298, num_pairs=41242, num_threads=1
Li  -0.0559787640  0.1329339398  -0.7500875705
H  -0.0454832031  -1.5181683519  1.5750866406
Li  0.0004979381  1.8862743664  0.7323610143
B  -0.0152721102  -0.2952482692  1.5640044893
H  0.0578067681  -0.7362286525  -2.6218087305
H  0.0736300951  -1.3775014939  -2.2186282804
H  -0.0396419496  1.8787901520  -1.0279495176
H  0.0244412256  0.0291483094  2.7470219549