8
charge=0, multiplicity=1, basis=def2-QZVPPD, AUX_BASIS_CORR=rimp2-def2-QZVPPD, SCF_ALGORITHM=GDM, xc_grid=000250000974, mem_total=3750, num_basis=343, num_pairs=57909, num_threads=1
B  -0.8142811561  0.1884123362  -0.1500667031
H  -2.0039833337  0.2582063284  -0.1326628588
H  -0.2909017550  0.7328338187  -1.1547388042
H  -0.2671424493  0.7996917972  0.8034138564
S  0.1051533417  -1.5587519787  -0.2036012261
H  0.1168734811  -1.8204241817  1.1327907919
Be  0.9805794866  0.3949838635  -0.1515432896
H  2.1737023847  1.0050480164  -0.1435917665