8
charge=0, multiplicity=1, basis=def2-QZVPPD, AUX_BASIS_CORR=rimp2-def2-QZVPPD, SCF_ALGORITHM=GDM, xc_grid=000250000974, mem_total=3750, num_basis=367, num_pairs=65553, num_threads=1
H  -1.3800940220  -0.3985935533  0.0003306329
C  -0.2960122567  -0.2477757016  0.0010089564
H  -0.4904000978  1.9944635504  1.0301581643
P  0.3763191835  1.4780161585  0.0011107021
H  0.1387926969  -2.3270924463  0.0002092164
C  0.5239146931  -1.3040940412  0.0008735697
H  -0.4835083177  1.9913829187  -1.0353047743
H  1.6109881207  -1.1863068853  0.0016135326