8
charge=0, multiplicity=1, basis=def2-QZVPPD, AUX_BASIS_CORR=rimp2-def2-QZVPPD, SCF_ALGORITHM=GDM, xc_grid=000250000974, mem_total=3750, num_basis=427, num_pairs=90637, num_threads=1
B  1.2795978278  -0.3333477083  -0.0257041602
H  0.0013457867  1.6443375694  -0.5888431378
C  -0.0002194342  0.6743820675  -0.1002945459
H  -2.4518584238  -0.2220465593  -0.1430327078
H  2.4531681868  -0.2194145380  -0.1164161638
C  0.0018821510  -0.9429749941  -0.4984268467
P  -0.0046758152  -0.2673551341  1.5062320849
B  -1.2792402790  -0.3335807030  -0.0335145228