8
charge=0, multiplicity=2, basis=def2-QZVPPD, AUX_BASIS_CORR=rimp2-def2-QZVPPD, SCF_ALGORITHM=GDM, xc_grid=000250000974, mem_total=3750, num_basis=340, num_pairs=50199, num_threads=1
H  -0.5283135035  -1.3676406407  -2.2442218793
H  -0.6283157962  -0.3907338747  0.6381859698
H  0.1204953044  1.6518020547  3.3290187393
H  0.1210130400  1.1116050371  2.8056186325
S  0.2658338248  -0.2699056179  -2.3005051018
N  0.2356587387  -0.8941044439  0.3621564808
H  -0.5598811076  0.3627324240  -3.1856891243
H  0.9735094994  -0.2037549387  0.5954362830