8
charge=0, multiplicity=2, basis=def2-QZVPPD, AUX_BASIS_CORR=rimp2-def2-QZVPPD, SCF_ALGORITHM=GDM, xc_grid=000250000974, mem_total=3750, num_basis=416, num_pairs=80035, num_threads=1
P  -1.0566404996  -0.0416474800  -0.9306914456
H  -0.1939581385  1.6762535852  0.6086481916
O  -0.2221185782  0.7036399738  0.5862508596
H  -3.0139737354  -1.3782372933  1.5728165990
H  -0.4242645558  0.8867139485  -1.8450288384
Al  1.1009995646  -0.5270215252  -0.0987862483
F  2.3552247965  0.3720937982  -0.8066190346
H  1.4547311464  -1.6917950071  0.9134099167