8
charge=0, multiplicity=1, basis=def2-QZVPPD, AUX_BASIS_CORR=rimp2-def2-QZVPPD, SCF_ALGORITHM=GDM, xc_grid=000250000974, mem_total=3750, num_basis=359, num_pairs=55566, num_threads=1
H  -0.4614899201  2.6684613356  0.4843419931
H  -0.7250312895  2.6493599957  1.1928903055
H  -0.2902242994  -0.6812948720  -2.4579925015
S  -0.9157300040  0.0256923514  0.8185212774
H  -0.0554678002  -1.1887102154  -2.9620883428
Cl  -0.7110956652  -2.1310690662  0.8357338691
H  2.2432679222  -0.7279663536  1.1057666876
Be  0.9157710563  -0.6144731755  0.9828267115