8
charge=0, multiplicity=1, basis=def2-QZVPPD, AUX_BASIS_CORR=rimp2-def2-QZVPPD, SCF_ALGORITHM=GDM, xc_grid=000250000974, mem_total=3750, num_basis=329, num_pairs=51109, num_threads=1
H  2.6075559194  0.0959370324  -0.3262777159
Li  0.6581332662  -0.3398786561  0.2070771751
F  -0.9053784183  -1.2396532352  0.0341465447
H  -0.7924308348  0.6710519847  1.1118217900
H  2.7037598481  -0.6090557898  -0.0696915456
H  -0.5732396907  0.7236753876  -0.8972814206
H  -2.4382889583  0.4558331287  -0.0931572976
B  -1.2601111316  0.2420901477  0.0333624700