8
charge=0, multiplicity=1, basis=def2-QZVPPD, AUX_BASIS_CORR=rimp2-def2-QZVPPD, SCF_ALGORITHM=GDM, xc_grid=000250000974, mem_total=3750, num_basis=400, num_pairs=74974, num_threads=1
H  1.6778651434  -0.2163823073  0.7352028966
H  -1.8866349738  0.2159696858  1.0281157350
P  0.3934529189  0.0825398023  0.2277334769
C  -0.8686507685  -0.0202403003  1.3224940496
H  1.4308443065  0.1899777856  -1.9614047053
F  -0.6155315289  0.0413282236  -2.2492814611
C  0.4948204294  -0.0774801903  -1.4662965758
H  -0.6261655270  -0.2157126994  2.3634365843