8
charge=0, multiplicity=1, basis=def2-QZVPPD, AUX_BASIS_CORR=rimp2-def2-QZVPPD, SCF_ALGORITHM=GDM, xc_grid=000250000974, mem_total=3750, num_basis=329, num_pairs=50398, num_threads=1
H  0.3052379320  1.8334569919  1.0644942099
B  0.1020136715  1.3504392088  -0.0296726334
F  -1.2776290834  0.6708788132  -0.0319764142
H  0.1828927987  2.0986693353  -0.9795366060
H  -0.3156564475  -2.8569716694  0.2090244579
Li  -0.3416029127  -0.7929990744  -0.1987776629
H  0.4211219224  -2.6859933926  0.1751349202
H  0.9236221190  0.3825197873  -0.2086902715