8
charge=0, multiplicity=1, basis=def2-QZVPPD, AUX_BASIS_CORR=rimp2-def2-QZVPPD, SCF_ALGORITHM=GDM, xc_grid=000250000974, mem_total=3750, num_basis=297, num_pairs=40730, num_threads=1
H  -0.9665197971  0.0577158409  1.9416993249
H  2.5472115213  -0.3995179406  0.0074047200
H  -0.9546583358  -0.4784893007  1.4099794766
F  -0.1360596156  1.5999723350  -0.2833308969
H  -0.9288734823  -0.6149855146  -1.6314212456
H  2.0623733514  0.1413385939  -0.1897764555
H  -1.2107738178  -1.3129490087  -1.6422410127
H  -0.4126998241  1.0069149947  0.3876860892