8
charge=0, multiplicity=1, basis=def2-QZVPPD, AUX_BASIS_CORR=rimp2-def2-QZVPPD, SCF_ALGORITHM=GDM, xc_grid=000250000974, mem_total=3750, num_basis=313, num_pairs=48021, num_threads=1
H  0.6392246403  1.2664886337  0.4571251268
Be  -0.6857890789  -0.0101345355  -0.0466440006
H  0.1375621975  1.2131062037  1.0383977724
H  0.2315930042  -1.2426108382  1.0748976170
S  -0.4071811476  -0.0248974668  -1.9844830237
H  -1.6185127333  -0.0588185335  0.9340719472
H  0.9455094095  0.1261635550  -1.9913716621
H  0.7575937082  -1.2692970184  0.5180062230