8
charge=0, multiplicity=1, basis=def2-QZVPPD, AUX_BASIS_CORR=rimp2-def2-QZVPPD, SCF_ALGORITHM=GDM, xc_grid=000250000974, mem_total=3750, num_basis=370, num_pairs=64546, num_threads=1
H  -1.7947247381  0.0175750530  -1.4488389313
H  -1.0408745169  0.9724720227  1.5553416423
Mg  -0.0805461720  0.0121682760  -1.7075101229
P  -0.0123504995  0.0183819399  1.8713640523
H  1.4396105178  0.0203764838  -2.5515968465
H  -0.9028113631  -1.0882081026  1.6414803241
O  0.7105369538  0.0093408918  0.2852526661
H  1.6811598181  0.0378934354  0.3545072158