8
charge=0, multiplicity=1, basis=def2-QZVPPD, AUX_BASIS_CORR=rimp2-def2-QZVPPD, SCF_ALGORITHM=GDM, xc_grid=000250000974, mem_total=3750, num_basis=319, num_pairs=48297, num_threads=1
H  0.0446296514  1.6738182612  1.7718740657
H  -0.0431273719  1.5285350627  2.5079352771
H  -1.0989583599  -0.1321722217  -0.6098150853
H  0.1996662919  -1.6766955015  -0.8760042231
H  0.9055744529  0.2053128265  -0.5650617487
H  -0.0083762511  -0.2711072207  -2.2986989698
Na  0.0010408851  -0.8639662057  1.1731102801
B  -0.0004492983  -0.4637250008  -1.1033395959