8
charge=0, multiplicity=1, basis=def2-QZVPPD, AUX_BASIS_CORR=rimp2-def2-QZVPPD, SCF_ALGORITHM=GDM, xc_grid=000250000974, mem_total=3750, num_basis=294, num_pairs=41210, num_threads=1
H  -1.1903044225  0.4998521164  -1.0669143975
B  -0.0239185380  0.2109615323  -1.0581827924
H  -0.0958574648  -0.5926693549  0.0456114879
H  0.3381756093  -0.3834840954  -2.0559865708
H  0.2606562065  0.3757959504  2.4998745795
H  0.8071273253  0.9551027950  -0.6109950599
H  -0.2644987388  -0.0135646169  2.8721455212
H  0.1686200230  -1.0519943268  -0.6255527681