8
charge=0, multiplicity=1, basis=def2-QZVPPD, AUX_BASIS_CORR=rimp2-def2-QZVPPD, SCF_ALGORITHM=GDM, xc_grid=000250000974, mem_total=3750, num_basis=337, num_pairs=51328, num_threads=1
H  -0.8432996527  0.5891591899  -1.9851048804
H  -1.2328567697  -0.8131677418  0.7736208447
H  0.1799995514  1.3941439462  2.3147429386
H  0.2390290612  1.8997601719  2.8687443580
C  -0.0418637872  -0.0832726676  -1.6758057275
Si  -0.0931697699  -0.9411663651  -0.1811178233
H  0.7954431563  -0.1818562209  -2.3681495258
H  0.9967182107  -1.8636003125  0.2530698157