8
charge=0, multiplicity=1, basis=def2-QZVPPD, AUX_BASIS_CORR=rimp2-def2-QZVPPD, SCF_ALGORITHM=GDM, xc_grid=000250000974, mem_total=3750, num_basis=296, num_pairs=41838, num_threads=1
H  2.4629858855  0.6892297734  0.0328445246
H  -0.6704217478  0.3037123190  -1.0596906200
H  -0.6401454361  0.5536032573  0.9236774630
Li  0.6802448546  -0.3763808761  0.0119115281
H  2.7596773952  -0.0015374626  -0.0524218533
H  -2.4160290020  0.1495279242  -0.0069641416
H  -0.9451655000  -1.2635293850  0.1496107850
B  -1.2311464494  -0.0546255502  0.0010323142