8
charge=0, multiplicity=1, basis=def2-QZVPPD, AUX_BASIS_CORR=rimp2-def2-QZVPPD, SCF_ALGORITHM=GDM, xc_grid=000250000974, mem_total=3750, num_basis=400, num_pairs=78754, num_threads=1
C  0.0955493525  -0.5755122156  -0.7997596795
H  -0.7929014582  -0.2383987577  -1.3667239492
H  0.9852418948  -0.2045234427  -1.3392729354
H  -0.7279215226  1.7396381582  0.6098696793
H  0.1104319711  -1.6744232682  -0.8276090776
Si  0.0907053490  -0.3139255008  2.3341542623
C  0.0807577458  -0.1012989755  0.5982255646
O  0.1581366676  1.3684440023  0.7911161355