8
charge=0, multiplicity=1, basis=def2-QZVPPD, AUX_BASIS_CORR=rimp2-def2-QZVPPD, SCF_ALGORITHM=GDM, xc_grid=000250000974, mem_total=3750, num_basis=354, num_pairs=58746, num_threads=1
C  0.5455759039  0.8748568013  -0.1893876645
H  -0.5464690565  0.9163519431  -0.1604438648
C  1.2568438540  -0.2447463167  0.4004708710
H  1.6732541648  -0.7691535365  1.2609858453
H  1.0588005837  1.8189327896  -0.3891597649
H  -2.5296777676  -0.8679744880  -0.3293988715
N  1.1653773004  -0.3959596019  -0.8473485553
H  -2.6237049828  -1.3323075909  0.2542820047