8
charge=0, multiplicity=1, basis=def2-QZVPPD, AUX_BASIS_CORR=rimp2-def2-QZVPPD, SCF_ALGORITHM=GDM, xc_grid=000250000974, mem_total=3750, num_basis=327, num_pairs=49767, num_threads=1
H  0.0709057958  0.7928400147  0.4250352201
H  -0.9004032712  0.2760195994  1.8368481223
H  0.8852225020  0.1683766413  1.8940624731
C  0.0032601187  0.0722015205  1.2492906202
O  0.0054266497  0.0989235080  -2.4204601345
H  -0.7738407799  -0.2241409372  -1.9389933541
H  0.7541956030  -0.2337417475  -1.8989600597
H  -0.0447666181  -0.9504785991  0.8531771126