8
charge=0, multiplicity=1, basis=def2-QZVPPD, AUX_BASIS_CORR=rimp2-def2-QZVPPD, SCF_ALGORITHM=GDM, xc_grid=000250000974, mem_total=3750, num_basis=327, num_pairs=52326, num_threads=1
C  -0.9560656520  0.5609479689  -0.0004742405
H  -1.9562841798  0.9766165065  0.0000871004
B  0.3784727260  1.1244125754  -0.0001956290
H  1.0389244108  2.1224847484  -0.0000254810
Be  0.0592755985  -0.6432657554  -0.0009467081
H  0.4729616170  -2.1455346810  0.0002187987
H  1.2950866843  0.1050480232  -0.0006523394
H  -0.3323712047  -2.1007093860  0.0019884989