8
charge=0, multiplicity=1, basis=def2-QZVPPD, AUX_BASIS_CORR=rimp2-def2-QZVPPD, SCF_ALGORITHM=GDM, xc_grid=000250000974, mem_total=3750, num_basis=396, num_pairs=70580, num_threads=1
H  0.4870615524  -1.0830564910  -1.3631132719
Al  -1.3280945995  0.5304152215  0.0486906740
Cl  -0.2224153731  2.3310708858  -0.2471911699
H  -2.8357537322  0.6774518922  0.5414636820
H  2.9234880997  0.3175741015  1.2479371761
P  -0.2139411809  -1.5084619649  -0.1826496463
H  2.5057520792  0.8146227618  0.8674162036
H  -1.3160968456  -2.0796164068  -0.9125536477