8
charge=0, multiplicity=1, basis=def2-QZVPPD, AUX_BASIS_CORR=rimp2-def2-QZVPPD, SCF_ALGORITHM=GDM, xc_grid=000250000974, mem_total=3750, num_basis=397, num_pairs=78282, num_threads=1
N  -0.2744859047  -1.0545397932  0.6975293875
Al  0.0437190864  0.3848096562  1.9392008157
C  0.2177498501  -0.3577087282  -0.3787652695
H  -1.1549643591  1.2876817061  -0.2114095060
H  -0.0660229444  -2.0508867104  0.7285385037
H  0.3517217807  1.6039304976  -1.2514999361
H  1.0623632052  -0.7593425015  -0.9580025114
C  -0.1800807141  0.9460558734  -0.5655914839