8
charge=0, multiplicity=1, basis=def2-QZVPPD, AUX_BASIS_CORR=rimp2-def2-QZVPPD, SCF_ALGORITHM=GDM, xc_grid=000250000974, mem_total=3750, num_basis=419, num_pairs=78040, num_threads=1
Cl  -2.7190358967  0.6742046852  0.4048621605
H  1.0771478373  1.9579594608  1.4609952125
F  0.4463129840  -1.7183085125  0.5527785159
H  -0.4079583991  -1.3021037986  -1.8180323582
Mg  -0.7486803150  -0.3814591651  0.2832983291
S  1.3196356237  1.3127181477  0.2869444515
H  -0.9462287375  -0.8206697214  -2.0540238042
H  1.9788069034  0.2776589039  0.8831774930