8
charge=0, multiplicity=1, basis=def2-QZVPPD, AUX_BASIS_CORR=rimp2-def2-QZVPPD, SCF_ALGORITHM=GDM, xc_grid=000250000974, mem_total=3750, num_basis=388, num_pairs=68208, num_threads=1
Li  -0.4888035065  -0.5153805996  -0.0065858224
H  -0.5594407646  2.5423321764  -0.0043637374
H  -2.1758038933  -1.8252018239  0.0132898495
C  -0.0889626652  1.5408843971  -0.0048034480
H  -1.5608267987  -2.2684077231  0.0093442009
Cl  1.4400412283  -1.5583891026  -0.0031822790
H  1.8702324430  0.3257641622  -0.0020254800
S  1.5635639570  1.7583985136  -0.0016732836