8
charge=0, multiplicity=2, basis=def2-QZVPPD, AUX_BASIS_CORR=rimp2-def2-QZVPPD, SCF_ALGORITHM=GDM, xc_grid=000250000974, mem_total=3750, num_basis=357, num_pairs=48870, num_threads=1
H  4.4460678691  -0.4389558884  -1.9485563480
H  -2.2828890384  -0.7593979492  0.8522155679
H  -3.7909880666  -0.0460201339  -0.0240423427
C  -2.7861492306  0.0766950326  0.3729402919
H  4.0515114333  -0.0955337184  -1.4079881529
C  1.7974400473  0.3097563747  0.6819218426
O  0.8511439720  -0.0857858461  1.1760742774
H  -2.2861369861  1.0392421288  0.2974348638