8
charge=0, multiplicity=2, basis=def2-QZVPPD, AUX_BASIS_CORR=rimp2-def2-QZVPPD, SCF_ALGORITHM=GDM, xc_grid=000250000974, mem_total=3750, num_basis=360, num_pairs=63249, num_threads=1
H  -0.7012006560  2.1750354207  0.0005580560
C  -0.2867708838  1.1551539820  -0.0004340981
H  1.1888495678  -1.8219859623  0.5836956503
O  0.9943755785  0.9522141889  -0.0011311439
Be  0.5649359520  -0.6728027169  -0.0016288130
H  -1.9824025314  0.0104556463  -0.0006854104
H  1.1902248328  -1.8235571282  -0.5792026224
N  -0.9680118598  0.0254865695  -0.0011716185