8
charge=0, multiplicity=1, basis=def2-QZVPPD, AUX_BASIS_CORR=rimp2-def2-QZVPPD, SCF_ALGORITHM=GDM, xc_grid=000250000974, mem_total=3750, num_basis=373, num_pairs=64070, num_threads=1
H  1.9210233428  0.7353763971  -1.4889094193
H  1.6132720176  1.3648237331  -1.1722961984
H  1.6734085734  -1.0524291825  0.5746801772
Al  0.6476915233  0.0735229034  0.2002738222
H  -2.5220681189  -1.9648631640  1.0445158671
O  -0.0951654876  1.6234034737  0.4982508516
H  -2.3134570753  -1.3153243503  0.7208488706
O  -0.9247047754  0.5354901895  -0.3773639710