8
charge=0, multiplicity=2, basis=def2-QZVPPD, AUX_BASIS_CORR=rimp2-def2-QZVPPD, SCF_ALGORITHM=GDM, xc_grid=000250000974, mem_total=3750, num_basis=301, num_pairs=40006, num_threads=1
Li  0.9917723431  -0.0738071299  -1.1874268767
Li  -1.0797455772  -0.0955936202  0.5945141096
H  -0.7132954939  -0.0622264570  -1.1399600151
H  -2.8366964230  0.0331409095  -0.3789568439
O  2.2251833663  -0.0934464817  0.2367559020
H  1.5934688682  -0.1526446616  1.0258039186
H  3.0025575875  0.4134551519  0.5456468904
H  -3.1832446710  0.0311222891  0.3036229152