8
charge=0, multiplicity=2, basis=def2-QZVPPD, AUX_BASIS_CORR=rimp2-def2-QZVPPD, SCF_ALGORITHM=GDM, xc_grid=000250000974, mem_total=3750, num_basis=386, num_pairs=74286, num_threads=1
N  -0.4545756013  1.8864657450  0.0225888998
Li  -0.8248056052  -1.6507233218  -0.2146870386
B  -0.8071953300  0.4002719347  0.2638058885
H  -1.7807340989  -0.0315383430  -0.3855583022
C  0.5442831894  1.1978342681  -0.2865358815
H  1.0096786641  -1.1521136506  -0.7016869323
H  1.4996911035  -0.3660331388  1.1449325132
B  0.8136576785  -0.2841634934  0.1571408531