8
charge=0, multiplicity=1, basis=def2-QZVPPD, AUX_BASIS_CORR=rimp2-def2-QZVPPD, SCF_ALGORITHM=GDM, xc_grid=000250000974, mem_total=3750, num_basis=387, num_pairs=71011, num_threads=1
H  1.2038920499  -0.0196542826  -0.4346759263
F  0.0073419397  2.0546011341  -0.0305682361
N  0.8049012398  -0.9679966237  -0.5124599215
B  -0.0094355965  -1.3438404854  0.5948410405
H  -1.1688215159  -0.0006143875  -0.4622149364
H  -0.0226144338  2.9290901846  -0.3592642973
N  -0.7876406862  -0.9542082995  -0.5284686643
H  -0.0276229969  -1.6973772400  1.7328109414