8
charge=0, multiplicity=1, basis=def2-QZVPPD, AUX_BASIS_CORR=rimp2-def2-QZVPPD, SCF_ALGORITHM=GDM, xc_grid=000250000974, mem_total=3750, num_basis=337, num_pairs=50704, num_threads=1
Si  0.0050041791  -0.3490484988  0.3729257508
H  -1.2508770583  0.4436296280  0.5200234542
C  -0.0011508582  -2.0343043691  0.0098951681
H  -0.9279128276  -2.5915337842  -0.1331915433
H  1.2667353235  0.4231816244  0.5692536214
H  -0.2754694616  3.3570016714  -0.3595033719
H  0.9220253123  -2.6059534743  -0.0937055671
H  0.2616453909  3.3570272025  -0.8856975121