8
charge=0, multiplicity=1, basis=def2-QZVPPD, AUX_BASIS_CORR=rimp2-def2-QZVPPD, SCF_ALGORITHM=GDM, xc_grid=000250000974, mem_total=3750, num_basis=355, num_pairs=59343, num_threads=1
H  -0.4032775188  -1.7760355341  -0.3759544908
H  -0.8119202167  0.0730487005  1.9467253183
H  1.0294452069  1.0602974131  -2.3586332134
H  -1.3749696195  0.5702424819  2.1708460487
O  -0.1147340021  -0.8503472601  -0.4261006274
O  0.6571844516  -0.7303856924  0.8792272125
H  0.8232356308  0.3912253470  -2.0614626099
Na  0.1950360676  1.2619545441  0.2253523622