8
charge=0, multiplicity=1, basis=def2-QZVPPD, AUX_BASIS_CORR=rimp2-def2-QZVPPD, SCF_ALGORITHM=GDM, xc_grid=000250000974, mem_total=3750, num_basis=327, num_pairs=50273, num_threads=1
H  -0.9846726929  1.5161546719  0.1847515430
C  0.0546426696  1.1886300082  -0.0004200563
H  -0.0194348065  -3.1047134587  0.8535468283
H  -0.3340541024  -0.1537294907  -1.3733712768
H  0.5870451530  1.1821775673  0.9591618577
H  0.5462378695  1.9257048025  -0.6609500661
H  0.0236906627  -2.4129327094  0.5554885549
O  0.1265452469  -0.1412913912  -0.5182073848