8
charge=0, multiplicity=1, basis=def2-QZVPPD, AUX_BASIS_CORR=rimp2-def2-QZVPPD, SCF_ALGORITHM=GDM, xc_grid=000250000974, mem_total=3750, num_basis=413, num_pairs=84708, num_threads=1
H  1.2101013331  -1.2043423340  -1.1783116747
H  -1.0784773227  0.3769881270  1.4682872839
S  0.7542877692  0.1068786511  -1.4188362591
P  -1.3931551940  0.2240570331  -1.1030049348
H  0.7896374756  1.4113289390  0.4300814084
C  -0.5952177961  -0.1079654940  0.6086704788
N  0.8165157905  0.3805150535  0.3697759350
H  -0.5036920557  -1.1874599758  0.8233377624