8
charge=0, multiplicity=1, basis=def2-QZVPPD, AUX_BASIS_CORR=rimp2-def2-QZVPPD, SCF_ALGORITHM=GDM, xc_grid=000250000974, mem_total=3750, num_basis=373, num_pairs=59158, num_threads=1
H  0.8326206861  -2.2014519019  0.7607553987
B  -0.2367297356  -1.6542347110  0.6826430249
F  -1.1812066511  -2.2461513577  -0.0485791799
H  -0.5215660213  -0.6208348152  1.2298969198
H  1.1000338646  0.4595702428  -1.0399943609
H  1.5543664197  -0.0862727390  -1.2910158158
Cl  -0.8102283541  2.6491472661  0.2311114844
H  -0.7372902084  3.7002280160  -0.5248174711