8
charge=0, multiplicity=1, basis=def2-QZVPPD, AUX_BASIS_CORR=rimp2-def2-QZVPPD, SCF_ALGORITHM=GDM, xc_grid=000250000974, mem_total=3750, num_basis=313, num_pairs=47271, num_threads=1
H  1.4363376306  0.3750023055  -1.1252601333
H  1.4303073167  -0.4026264894  -1.1243668891
S  0.0761853610  -0.0057406592  1.5154876580
H  -0.7751873235  1.0058282035  1.8331709509
H  -0.5516425969  -1.2976835460  -1.0804963157
Be  -0.2455306732  -0.0016617318  -0.7545891667
H  -0.8326527338  -0.9684995056  1.8243561637
H  -0.5378169810  1.2953814231  -1.0883022678