8
charge=0, multiplicity=1, basis=def2-QZVPPD, AUX_BASIS_CORR=rimp2-def2-QZVPPD, SCF_ALGORITHM=GDM, xc_grid=000250000974, mem_total=3750, num_basis=310, num_pairs=42243, num_threads=1
H  -2.6048387914  1.1350401378  -0.5485656290
Cl  -0.6750176954  -2.0476167337  0.0384587489
H  -2.7832024865  1.1630572872  0.1817161803
H  -0.5927519924  -0.7560375293  0.1339765808
H  3.0573302993  -0.8686254358  -0.1772640053
H  2.4760539477  -1.3468416189  -0.1615727845
H  0.8693922488  1.1445401036  0.2556564667
H  0.2530344698  1.5764837892  0.2775944420