8
charge=0, multiplicity=1, basis=def2-QZVPPD, AUX_BASIS_CORR=rimp2-def2-QZVPPD, SCF_ALGORITHM=GDM, xc_grid=000250000974, mem_total=3750, num_basis=357, num_pairs=58615, num_threads=1
H  -1.2863890758  1.3504764601  -0.7102295192
C  -0.4218004877  0.7071653572  -0.5249842001
O  -0.6796772137  -0.7447671651  -0.9643163614
B  0.2696590828  -0.0740855303  -1.6331071341
H  0.3272541045  -0.5860523175  2.8069321585
H  -0.0205115313  0.7623457565  0.4910892639
H  0.7922475397  -1.1180177123  3.0641118943
H  1.0192175815  -0.2970648487  -2.5294961020