8
charge=0, multiplicity=1, basis=def2-QZVPPD, AUX_BASIS_CORR=rimp2-def2-QZVPPD, SCF_ALGORITHM=GDM, xc_grid=000250000974, mem_total=3750, num_basis=337, num_pairs=56284, num_threads=1
H  -1.0257543138  -0.0526770576  1.3918075792
H  -0.6193163776  -1.2623775769  -1.4270451063
C  0.0001166987  -0.0002080067  1.0010785205
H  0.5584831268  -0.8618370223  1.3932320006
H  1.4022655285  0.0941568116  -1.4270764474
H  -0.7837512719  1.1674088639  -1.4257595226
H  0.4678408000  0.9157006385  1.3887259206
Si  0.0001158092  -0.0001666504  -0.8949629446