8
charge=0, multiplicity=1, basis=def2-QZVPPD, AUX_BASIS_CORR=rimp2-def2-QZVPPD, SCF_ALGORITHM=GDM, xc_grid=000250000974, mem_total=3750, num_basis=354, num_pairs=62164, num_threads=1
N  -0.0004370466  0.7410014515  0.2668376987
H  -0.8776646746  0.4033143972  -1.5964993811
C  -0.0001587621  0.0176467376  1.3106801638
H  -0.0009215226  -1.0916113004  1.2901978172
H  0.8860558779  0.3923663211  -1.5895025414
C  -0.0002553892  0.0709388919  -1.0210116686
H  0.0004570307  0.5021596977  2.2947623738
H  -0.0070755135  -1.0358161967  -0.9554644624