8
charge=0, multiplicity=1, basis=def2-QZVPPD, AUX_BASIS_CORR=rimp2-def2-QZVPPD, SCF_ALGORITHM=GDM, xc_grid=000250000974, mem_total=3750, num_basis=417, num_pairs=85326, num_threads=1
H  -0.4101533068  -2.2912791082  0.0325968643
H  0.2783497834  1.5130274417  1.7383266778
Si  -1.3239600369  -0.2651699602  -1.0350367783
Li  0.0875236701  -0.2048383114  1.5746893043
N  -0.2048586733  -1.2941888872  -0.0992907997
Li  0.2372279205  2.1217677314  0.1038429473
Al  1.3953018517  -0.4604977606  -1.0821054128
O  -0.0594312087  0.8811788546  -1.2330228028