8
charge=0, multiplicity=1, basis=def2-QZVPPD, AUX_BASIS_CORR=rimp2-def2-QZVPPD, SCF_ALGORITHM=GDM, xc_grid=000250000974, mem_total=3750, num_basis=337, num_pairs=56045, num_threads=1
H  -1.0381065638  -1.5425982238  -0.0056504580
H  -1.1578080160  -1.4502825416  0.7595752897
Al  -1.3629465788  0.7013779534  0.1654322307
H  1.3517909275  0.9931704271  0.9628146024
H  -1.2308112378  0.0020787028  -1.3701641145
H  1.2770206473  -0.3764631385  0.0387500722
H  1.2425958099  1.0958888084  -0.6861003993
N  0.9182650118  0.5768280121  0.1353427768