8
charge=0, multiplicity=2, basis=def2-QZVPPD, AUX_BASIS_CORR=rimp2-def2-QZVPPD, SCF_ALGORITHM=GDM, xc_grid=000250000974, mem_total=3750, num_basis=354, num_pairs=62176, num_threads=1
H  0.7105740131  -1.8392648895  -0.1308941772
C  0.0494874313  -0.9847334533  0.0588535913
N  0.8355926424  0.2257641914  0.0303499188
H  -0.7549225627  -0.9894598320  -0.7106034014
H  -0.9263837194  1.2417943731  -0.2892781672
H  -0.4385029249  -1.1374841832  1.0428460976
N  0.0228592963  1.3052011105  0.1053320190
H  0.5012958239  2.1781826832  -0.1066058809