8
charge=0, multiplicity=1, basis=def2-QZVPPD, AUX_BASIS_CORR=rimp2-def2-QZVPPD, SCF_ALGORITHM=GDM, xc_grid=000250000974, mem_total=3750, num_basis=378, num_pairs=67998, num_threads=1
Be  -0.8756465885  1.3821108421  -0.2233015458
Li  1.5359667969  1.9586938847  -0.2119987747
N  -0.9473232719  -0.6799605840  -0.3326896244
N  -1.9008120962  0.0975454742  -0.6084274416
H  0.4550037231  -0.6479082875  1.7994672151
Be  0.5696314565  -0.2642475227  0.4836619093
H  -1.1824520948  -1.6974054900  -0.4329136184
Cl  2.3456320748  -0.1488283169  -0.4737981196