8
charge=0, multiplicity=2, basis=def2-QZVPPD, mem_total=3750, AUX_BASIS_CORR=rimp2-def2-QZVPPD, SCF_ALGORITHM=GDM, xc_grid=000250000974, num_basis=297, num_pairs=38220, num_threads=1
N  0.0005870663  -0.1984235193  1.8642313481
Be  -0.0048682042  0.6487440982  0.6060302063
H  -0.0397454502  -1.2134186509  1.8862178542
H  -0.0448531105  0.7521536861  -0.8196176075
H  0.0411679795  0.1636538415  2.8126323878
H  0.0222381203  1.9305885095  -0.0262839322
H  0.0387101324  -1.2450463253  -3.4772619632
H  -0.0132365337  -0.8382516398  -2.8459482935