8
charge=0, multiplicity=1, basis=def2-QZVPPD, AUX_BASIS_CORR=rimp2-def2-QZVPPD, SCF_ALGORITHM=GDM, xc_grid=000250000974, mem_total=3750, num_basis=326, num_pairs=50750, num_threads=1
H  0.0016299924  -1.3236896745  -0.5634280324
Li  -0.0015363456  -0.1677122016  0.6251025732
C  -0.0001923290  -0.4369967666  -1.3296234791
C  -0.0006278427  0.8941822961  -1.1856414906
H  -0.0001983386  -0.1132498760  2.5846609134
H  0.0017596122  0.6245576980  2.3831419170
H  -0.0017653951  -0.9076088820  -2.3183879293
H  0.0009306464  1.4305174066  -0.1958244722