8
charge=0, multiplicity=1, basis=def2-QZVPPD, AUX_BASIS_CORR=rimp2-def2-QZVPPD, SCF_ALGORITHM=GDM, xc_grid=000250000974, mem_total=3750, num_basis=397, num_pairs=76598, num_threads=1
N  0.5957135371  0.2143707346  -1.0919452225
C  -0.4860166267  0.0998944384  -1.8211651428
Si  0.0381256011  1.0902376412  0.4576882153
H  -1.3109379740  0.6811468309  -1.2633217165
H  1.4655544413  -0.2145084008  -1.4181740392
H  0.2098006800  -1.2780762708  1.2384428629
H  -0.4741052568  -0.2701937078  2.4083810837
N  -0.0381344021  -0.3228712656  1.4900939589