8
charge=0, multiplicity=1, basis=def2-QZVPPD, AUX_BASIS_CORR=rimp2-def2-QZVPPD, SCF_ALGORITHM=GDM, xc_grid=000250000974, mem_total=3750, num_basis=416, num_pairs=77031, num_threads=1
H  -2.7869331041  -0.0283901089  1.4428271859
H  -2.0399354720  -0.0988063236  1.5173193758
S  0.4285608052  1.5776631565  -1.5036114062
H  -0.7635508254  1.5302221332  -0.8455916603
Mg  0.4673417590  -2.5569840224  -1.5010639886
F  0.4482906535  -0.2975703509  1.2468174350
Al  1.3382756031  0.0669866557  -0.1581959058
H  2.9079505807  -0.1931211395  -0.1985010358