8
charge=0, multiplicity=1, basis=def2-QZVPPD, AUX_BASIS_CORR=rimp2-def2-QZVPPD, SCF_ALGORITHM=GDM, xc_grid=000250000974, mem_total=3750, num_basis=357, num_pairs=56624, num_threads=1
C  0.0236835467  0.2116082203  1.5028309774
F  -0.0107783293  -0.1249927903  2.8164666313
C  0.0156593654  -0.6989911351  0.5372368520
H  -0.0194850797  -1.7659690372  0.7553098906
H  0.0570745098  1.2946152375  1.3664890696
H  -0.0604252655  0.8266900552  -3.6013384529
H  0.0468044000  -0.3732125529  -0.5011322267
H  -0.0525331475  0.6302520025  -2.8758627413