8
charge=0, multiplicity=2, basis=def2-QZVPPD, AUX_BASIS_CORR=rimp2-def2-QZVPPD, SCF_ALGORITHM=GDM, xc_grid=000250000974, mem_total=3750, num_basis=340, num_pairs=54581, num_threads=1
H  2.5412686782  0.4632830970  0.3381241842
H  0.9050559831  -0.8827298700  0.0527166027
P  1.0684421535  0.5339330379  0.0698436624
H  1.2324116808  0.8036796547  -1.3132977064
H  -1.9221497478  -1.2236535033  -0.0852780863
H  -2.1802977035  -1.9217497964  0.0364420113
O  -0.6585248685  1.0597463564  -0.0057531391
H  -0.9862061759  1.1674910237  0.9072024713