8
charge=0, multiplicity=1, basis=def2-QZVPPD, AUX_BASIS_CORR=rimp2-def2-QZVPPD, SCF_ALGORITHM=GDM, xc_grid=000250000974, mem_total=3750, num_basis=367, num_pairs=67593, num_threads=1
H  0.7484153126  1.2685144883  0.5988176479
C  -0.1635463628  0.7466533911  0.3093978549
H  0.7484873707  -1.2685715231  0.5985647396
C  -0.1635593899  -0.7466336751  0.3093516054
H  1.2114079402  0.0000379508  -1.6031482131
H  -1.0811521264  1.2562509058  0.6078829290
P  -0.2189027968  0.0000385709  -1.4285979475
H  -1.0811499476  -1.2562901087  0.6077313839