8
charge=0, multiplicity=1, basis=def2-QZVPPD, AUX_BASIS_CORR=rimp2-def2-QZVPPD, SCF_ALGORITHM=GDM, xc_grid=000250000974, mem_total=3750, num_basis=319, num_pairs=45460, num_threads=1
B  -0.0060026956  1.5063921368  0.0952972753
H  -0.5177903557  1.0004236054  -0.9257420621
Na  -0.0192693265  -0.7925947885  0.2851737566
H  1.1633042996  1.0847990129  0.2174296858
H  0.0000035185  2.7129169036  -0.0025201683
H  -0.3400355232  -3.3199477948  -0.4757416851
H  -0.6704066565  1.1663243893  1.0971372831
H  0.3901967393  -3.3583134648  -0.2910340852