16
charge=0, multiplicity=1, basis=def2-QZVPPD, AUX_BASIS_CORR=rimp2-def2-QZVPPD, SCF_ALGORITHM=GDM, xc_grid=000099000590, mem_total=15000, num_basis=901, num_pairs=363424, num_threads=4
B  0.1585871000  -1.3478077000  -1.1106152000
Si  -1.7157068000  2.4358712000  -1.4966960000
H  2.1898441000  0.7526855000  0.2534936000
P  1.6765506000  -1.4795252000  1.5636341000
H  -0.0641004000  -2.4927289000  -1.3590030000
O  -0.3057736000  -0.3956369000  -2.1642341000
Li  -0.9955710000  0.9929041000  0.7273015000
Al  2.6474848000  -1.7477006000  -0.6756518000
C  0.6136965000  -0.8350872000  0.2090355000
B  -0.8629441000  0.7117796000  -1.8790401000
H  -2.6455217000  1.7014914000  -0.5301528000
Cl  -1.5351627000  0.0044257000  2.6457839000
H  0.9557321000  0.9197561000  1.5838766000
Al  -0.9024069000  -2.1612957000  1.8594155000
C  1.3963939000  0.2583232000  0.8308181000
H  -0.6111018000  2.6825455000  -0.4579658000