16
charge=0, multiplicity=1, basis=def2-QZVPPD, AUX_BASIS_CORR=rimp2-def2-QZVPPD, SCF_ALGORITHM=GDM, xc_grid=000099000590, mem_total=15000, num_basis=861, num_pairs=313835, num_threads=4
Na  -0.9817730000  1.8980021000  -1.2793582000
H  2.3293211000  0.0123766000  -2.6218488000
O  -1.5806838000  2.5202167000  0.6722840000
H  0.4232405000  0.7466871000  -2.6705202000
F  -2.2259699000  0.9751451000  2.4079572000
H  -1.8751713000  -1.6872052000  0.7738686000
H  1.4289482000  0.5652587000  -0.9167180000
O  1.9744342000  -1.0954047000  1.1809165000
N  -0.9276835000  0.1902467000  0.5573473000
H  2.8668474000  -0.8354744000  0.9281448000
H  -1.1825142000  -1.1316796000  2.1745065000
Cl  0.5374633000  -1.7036969000  -1.7783046000
B  1.2812396000  0.1409010000  -2.0736463000
B  -1.6008987000  1.3423523000  1.2259180000
N  -1.0606769000  -1.2130598000  1.1630402000
Al  0.5938772000  -0.7246657000  0.2564130000