16
charge=0, multiplicity=1, basis=def2-QZVPPD, AUX_BASIS_CORR=rimp2-def2-QZVPPD, SCF_ALGORITHM=GDM, xc_grid=000099000590, mem_total=15000, num_basis=945, num_pairs=380863, num_threads=4
H  1.4778582000  2.0267388000  -1.4779230000
H  -0.7590910000  0.2297620000  2.9308701000
C  -1.7265372000  -1.3263507000  -0.8288561000
B  1.1353428000  -0.4698987000  -1.1884922000
H  -2.2766949000  -2.0830077000  -0.2589303000
P  0.0323202000  -2.0239326000  -1.1765371000
O  0.2178545000  0.3074814000  2.9467469000
Cl  2.3355962000  2.0771040000  1.3650743000
Al  0.7075508000  0.7418770000  1.0452835000
P  1.6316789000  0.9129364000  -2.3424875000
B  -1.5999506000  0.0234859000  -0.1462444000
H  0.5900768000  -0.5165690000  3.3098059000
F  0.3277667000  1.1530956000  -3.2876704000
P  -1.4155046000  1.5884620000  0.5558413000
H  -2.1864595000  -1.2394742000  -1.8222538000
P  1.5081926000  -1.4017101000  0.3757729000