16
charge=0, multiplicity=2, basis=def2-QZVPPD, mem_total=15000, AUX_BASIS_CORR=rimp2-def2-QZVPPD, SCF_ALGORITHM=GDM, xc_grid=000099000590, num_basis=843, num_pairs=320626, num_threads=4
H  -1.1781447000  2.3120190000  -0.6871513000
Al  -0.2575179000  1.1166054000  -0.2353406000
Si  1.8467851000  1.1305078000  -2.2116710000
B  -1.2743364000  -0.8148905000  1.1104936000
N  -0.5478158000  -0.8234793000  -0.3133428000
Si  2.3234826000  -0.6411012000  -0.4452858000
O  -0.7882195000  0.6192295000  1.5109570000
H  0.3011237000  0.8295766000  -2.2505138000
N  1.6128766000  1.1030051000  -0.2786646000
H  2.2256423000  1.7225738000  0.2470777000
H  0.7010803000  -2.4234230000  -0.0686808000
H  -1.3753222000  1.1102537000  2.1006231000
H  -2.4730137000  -0.8301773000  0.9691422000
N  0.7589661000  -1.4481635000  -0.3508044000
F  -0.7606166000  -1.7574345000  1.9734884000
H  -1.1149702000  -1.2051017000  -1.0703268000