16
charge=0, multiplicity=2, basis=def2-QZVPPD, AUX_BASIS_CORR=rimp2-def2-QZVPPD, SCF_ALGORITHM=GDM, xc_grid=000099000590, mem_total=15000, num_basis=867, num_pairs=340339, num_threads=4
H  0.9249815000  -1.3046338000  -0.0058656000
B  0.2594208000  1.5890420000  -2.2445919000
C  0.9137621000  0.2503181000  1.5059109000
Si  -0.9337185000  0.1940914000  2.0454422000
N  -1.4444416000  -1.2362264000  1.1902901000
H  2.4245828000  -0.3934853000  0.0913545000
H  1.2277592000  1.2976373000  1.6229335000
H  -2.5229095000  -2.8436258000  0.4047019000
H  -1.0703336000  1.6265501000  -2.3584239000
C  1.3339347000  -0.2923471000  0.1166372000
Al  -2.4049739000  0.0871935000  -0.2082477000
C  -2.2425211000  -1.7879789000  0.3641030000
B  -0.8328001000  0.7957198000  -1.3664122000
B  0.8072069000  0.6180700000  -1.0761071000
Si  2.1083489000  1.6984404000  -2.3784232000
H  1.4517014000  -0.2987654000  2.2966984000