16
charge=0, multiplicity=1, basis=def2-QZVPPD, AUX_BASIS_CORR=rimp2-def2-QZVPPD, SCF_ALGORITHM=GDM, xc_grid=000099000590, mem_total=15000, num_basis=830, num_pairs=294103, num_threads=4
C  -0.0113696000  -0.3554046000  -2.5140065000
O  0.7291665000  -1.7188645000  2.0314927000
H  -1.1852876000  0.8707630000  1.8138775000
Li  -0.4636793000  -1.4503071000  0.7605528000
Mg  0.6852444000  0.9867581000  -0.5531832000
Al  -1.9355623000  0.2404425000  -0.7491351000
C  -0.1230120000  -0.9698446000  -1.2879948000
H  0.1607293000  -2.0332514000  -1.2958635000
H  -1.7788790000  2.2228421000  0.8644249000
H  0.2612705000  -0.8268140000  -3.4587568000
F  2.3207910000  0.9849431000  0.2972854000
S  -0.6220263000  1.3200658000  -2.5940005000
C  -0.9875694000  1.4622741000  0.9079228000
H  0.5416723000  -2.2457077000  2.8174354000
Na  2.4934534000  -0.5484821000  1.7757757000
H  -0.0849421000  2.0605873000  1.1841730000