16
charge=0, multiplicity=2, basis=def2-QZVPPD, AUX_BASIS_CORR=rimp2-def2-QZVPPD, SCF_ALGORITHM=GDM, xc_grid=000099000590, mem_total=15000, num_basis=876, num_pairs=330550, num_threads=4
C  -0.1302868000  -0.8960626000  -0.4379047000
Cl  2.3949683000  -0.5163980000  2.5138539000
N  2.0143861000  -0.0399098000  -1.0168869000
O  0.5927892000  -0.6685174000  -2.7729070000
Al  1.4662312000  -0.4094706000  0.6546895000
C  -0.1789609000  1.6387325000  0.6346534000
S  -2.4645579000  -0.0358849000  1.1535379000
H  0.8616853000  1.6723909000  1.0292765000
H  -0.7559012000  2.1976172000  1.3786515000
H  -0.6153619000  -1.8607382000  -0.5779051000
N  -3.1832235000  -1.4325216000  0.6809975000
H  -0.1286352000  2.2255308000  -0.2912921000
C  0.8405103000  -0.5283884000  -1.5903434000
B  -0.8462193000  0.2049300000  0.3264773000
H  -2.5999179000  -1.8706158000  -0.0492172000
H  2.7324941000  0.3193061000  -1.6356811000