16
charge=0, multiplicity=1, basis=def2-QZVPPD, AUX_BASIS_CORR=rimp2-def2-QZVPPD, SCF_ALGORITHM=GDM, xc_grid=000099000590, mem_total=15000, num_basis=955, num_pairs=385536, num_threads=4
B  0.7314677000  -2.0764984000  1.1721583000
Si  -2.6161082000  1.0151839000  -0.4718415000
B  1.5308295000  -1.2917367000  -0.0814810000
O  -0.2732688000  -1.9635172000  2.0615698000
H  -3.6796036000  1.6552186000  -1.2838047000
S  2.1493138000  -2.9487711000  0.5551783000
Al  -0.8923676000  -0.7247732000  0.9348726000
C  -2.7099035000  -0.4510753000  0.4470404000
H  -0.1974260000  0.8967306000  0.6373203000
B  -0.6878890000  1.4104745000  -0.4503535000
H  -3.5328034000  -1.1506878000  0.5662550000
S  0.4888670000  1.9559372000  -1.5677212000
F  3.2530026000  1.5438304000  -1.4387548000
O  2.0863170000  -0.3871554000  -0.8472604000
B  2.2105079000  1.0793184000  -0.6907850000
H  2.1390647000  1.4375215000  0.4576075000