16
charge=0, multiplicity=2, basis=def2-QZVPPD, AUX_BASIS_CORR=rimp2-def2-QZVPPD, SCF_ALGORITHM=GDM, xc_grid=000099000590, mem_total=7500, num_basis=790, num_pairs=266282, num_threads=2
H  -1.0299560000  0.4049428000  0.7823816000
H  -2.6121641000  -0.7433475000  0.3059338000
H  1.4183802000  1.7954945000  -0.3983655000
B  1.6844389000  -1.5026523000  2.1938393000
B  -1.5221558000  -0.3853086000  -0.0211142000
H  2.4049924000  -1.1772950000  3.0956296000
O  -1.6685392000  0.4354276000  -1.3805222000
B  -0.5447209000  1.1411237000  -1.9830104000
F  1.7675645000  1.7292523000  0.5309141000
O  0.6080279000  0.9570942000  -1.3886093000
H  -0.7729867000  -1.3193368000  -0.2794862000
H  0.5070383000  -1.1873663000  2.3302935000
H  -2.5557937000  0.5273473000  -1.7573919000
H  -0.8256678000  1.8007319000  -2.9360824000
P  2.2479270000  -2.2800394000  0.6509967000
Mg  0.8936148000  -0.1960683000  0.2545934000