16
charge=0, multiplicity=2, basis=def2-QZVPPD, AUX_BASIS_CORR=rimp2-def2-QZVPPD, SCF_ALGORITHM=GDM, xc_grid=000099000590, mem_total=7500, num_basis=784, num_pairs=265652, num_threads=2
B  0.0577488000  0.8688042000  0.1473131000
N  -1.2175579000  0.4644330000  -0.3199282000
H  1.4715544000  2.6216562000  0.2158441000
O  -2.8376040000  -3.8604046000  0.0322645000
B  1.1316246000  -0.5239495000  0.4955594000
H  0.0493730000  -1.4586663000  -1.9595145000
Al  -0.8079693000  -1.2963876000  -0.5436094000
H  -0.2394015000  3.1015359000  0.1630675000
B  -2.0924669000  -2.9213852000  -0.1677614000
Mg  1.4219314000  -0.0718480000  -1.8893817000
H  -2.0104185000  1.0923792000  -0.4089758000
H  0.4746388000  2.4270193000  1.6389567000
H  1.4622067000  -0.3330005000  1.6341390000
H  0.5295768000  -1.6504254000  0.5750009000
C  0.4602252000  2.3461796000  0.5416433000
H  2.1465384000  -0.8059404000  -0.1546175000