16
charge=0, multiplicity=1, basis=def2-QZVPPD, mem_total=15000, AUX_BASIS_CORR=rimp2-def2-QZVPPD, SCF_ALGORITHM=GDM, xc_grid=000099000590, num_basis=899, num_pairs=300657, num_threads=4
H  2.8952400000  2.4267151000  0.1426725000
Si  3.2322730000  0.8461704000  2.7064564000
H  0.8873588000  -1.4346008000  2.0782983000
Al  -2.1977260000  -2.1935431000  -2.2762359000
H  -3.0622509000  0.5325383000  -0.5264635000
H  1.1876595000  1.2315424000  -0.4186029000
Si  1.6669129000  -0.2840650000  1.5392917000
H  -2.8449092000  -0.6314835000  0.6299405000
N  -2.8163458000  -0.4509525000  -0.3786951000
H  4.0451539000  3.3676623000  1.6368650000
C  0.7985138000  0.3254530000  0.0598838000
S  -4.0709978000  -1.5056327000  -1.2105486000
F  -2.1571615000  -3.3446089000  -3.4642896000
N  -0.2670245000  -0.1874400000  -0.4881559000
B  -1.2974902000  -0.8104153000  -1.0069899000
P  4.0007939000  2.1126601000  0.9765732000