16
charge=0, multiplicity=1, basis=def2-QZVPPD, AUX_BASIS_CORR=rimp2-def2-QZVPPD, SCF_ALGORITHM=GDM, xc_grid=000099000590, mem_total=15000, num_basis=848, num_pairs=326943, num_threads=4
Si  0.4269673000  -0.0956889000  -1.7493074000
H  -0.6155885000  -0.5328682000  1.5409933000
N  1.4473367000  0.4795675000  1.3886781000
H  0.9017733000  -1.6965568000  0.8566220000
F  -2.4571587000  0.9685821000  0.4977302000
B  0.4467916000  -0.5113110000  0.9749192000
F  -0.9972948000  -2.2485458000  -0.3309189000
B  0.3537217000  -1.7483435000  -0.4431384000
B  0.8546106000  1.3711981000  0.3989014000
H  -1.6060539000  3.1383959000  -0.9621300000
H  2.4212438000  0.2311576000  1.2168058000
H  1.1438546000  -2.5712782000  -0.7997033000
H  -0.9962544000  0.5389642000  -1.4956763000
Al  -1.0932177000  1.9032439000  -0.1243216000
Li  -1.9606703000  -0.7593501000  0.3093412000
S  1.7299388000  1.5328333000  -1.2787952000