16
charge=0, multiplicity=1, basis=def2-QZVPPD, AUX_BASIS_CORR=rimp2-def2-QZVPPD, SCF_ALGORITHM=GDM, xc_grid=000099000590, mem_total=15000, num_basis=841, num_pairs=301839, num_threads=4
Na  -1.1551625000  2.7392079000  1.3415281000
H  -1.4429772000  -1.7949404000  -0.1261253000
O  -0.4014092000  2.5119559000  -0.7404649000
H  1.5491093000  1.2935393000  1.6640407000
Mg  0.6557539000  -2.3384184000  0.2287442000
H  1.6983279000  -1.6994145000  -3.2062231000
Al  0.3849568000  0.9081736000  -0.5556886000
H  -1.4436381000  -0.4805131000  -1.6387677000
H  2.2794361000  -1.7398934000  -0.5938714000
Mg  -0.7543404000  -0.3699929000  1.6343483000
O  0.6758057000  1.1053063000  1.2920388000
Cl  -2.2224441000  0.8888178000  2.9272698000
Al  1.3863326000  -0.9200125000  -1.8523864000
H  -0.6270299000  2.8009337000  -1.6336923000
H  0.2145964000  -2.0053109000  1.9650269000
B  -0.7973174000  -0.8994385000  -0.7057771000