16
charge=0, multiplicity=1, basis=def2-QZVPPD, AUX_BASIS_CORR=rimp2-def2-QZVPPD, SCF_ALGORITHM=GDM, xc_grid=000099000590, mem_total=7500, num_basis=757, num_pairs=244139, num_threads=2
Li  1.0928625000  0.0434901000  -1.7557828000
Cl  -1.2279159000  -2.8929292000  -2.1392631000
F  1.1962299000  -1.6035034000  -2.4561761000
H  -0.0785287000  -0.2311005000  2.8911575000
H  0.6641532000  1.9698902000  1.6534759000
Na  -1.9625666000  -0.9045698000  -0.7644044000
B  -0.2687685000  -0.0458454000  1.7215938000
H  1.0366035000  -0.3681109000  0.7926051000
C  -0.0720207000  1.3963775000  1.0657223000
H  -1.0776781000  -0.8145733000  1.2448115000
H  0.5383462000  2.3844644000  -0.7480454000
F  -0.6422696000  0.7680864000  -1.3017912000
C  0.5289643000  1.3698399000  -0.3235856000
H  0.9670991000  -0.8939463000  1.3865146000
H  -1.0080309000  1.9829484000  1.1201133000
H  0.3135203000  -2.1605181000  -2.3869455000