5
charge=0, multiplicity=1, basis=def2-QZVPPD, AUX_BASIS_CORR=rimp2-def2-QZVPPD, SCF_ALGORITHM=GDM, xc_grid=000099000590, mem_total=3750, num_basis=208, num_pairs=22094, num_threads=1
Si  0.0000000000  0.0000000000  0.0000000000
H  0.8560414000  0.8560414000  -0.8560414000
H  -0.8560414000  -0.8560414000  -0.8560414000
H  0.8560414000  -0.8560414000  0.8560414000
H  -0.8560414000  0.8560414000  0.8560414000