16
charge=0, multiplicity=2, basis=def2-QZVPPD, AUX_BASIS_CORR=rimp2-def2-QZVPPD, SCF_ALGORITHM=GDM, xc_grid=000099000590, mem_total=7500, num_basis=757, num_pairs=262157, num_threads=2
N  -2.5247750000  0.2747565000  -0.0117877000
N  -1.1620942000  0.8506164000  -0.0327618000
H  -1.6090585000  -1.0888481000  -1.0937757000
F  -0.0491611000  -1.3070638000  -1.6057499000
H  -0.3165149000  -1.0504654000  0.9320110000
H  2.4847279000  0.5316933000  1.0704365000
H  -0.8375036000  0.9088145000  -1.0083875000
B  1.5791762000  0.7508199000  0.3048057000
H  1.4246530000  1.9046777000  0.0031711000
B  -0.0166080000  0.1703122000  0.9272130000
H  -0.1733075000  0.5431297000  2.0489480000
Al  1.0929973000  -1.1994978000  -0.3145784000
H  1.9345481000  -2.4709520000  0.0330085000
O  -2.5189296000  -0.8680900000  -0.7289206000
H  1.9823293000  0.2384115000  -0.8179130000
H  -1.2904792000  1.8116853000  0.2942808000