4
charge=0, multiplicity=1, basis=def2-QZVPPD, AUX_BASIS_CORR=rimp2-def2-QZVPPD, SCF_ALGORITHM=GDM, xc_grid=000099000590, mem_total=3750, num_basis=162, num_pairs=13492, num_threads=1
B  0.0000000000  0.0000000000  0.0000000000
H  -0.5966928000  1.0335023000  0.0000000000
H  -0.5966928000  -1.0335023000  0.0000000000
H  1.1933857000  0.0000000000  0.0000000000