16
charge=0, multiplicity=1, basis=def2-QZVPPD, mem_total=7500, AUX_BASIS_CORR=rimp2-def2-QZVPPD, SCF_ALGORITHM=GDM, xc_grid=000099000590, num_basis=817, num_pairs=282351, num_threads=2
F  0.7376682000  2.7204564000  2.3332915000
H  2.1502189000  1.5310882000  -2.2904535000
C  -1.1792462000  0.2222691000  -1.8302544000
C  -0.7925509000  -0.8893835000  -1.4482176000
Al  0.6303297000  -2.2656506000  -1.0558775000
H  -0.3935600000  -2.5587739000  0.7967031000
Mg  1.3292880000  0.3191643000  -1.3712420000
H  0.2272279000  -2.1405843000  0.9694259000
H  1.9889959000  2.1855359000  0.3246245000
O  1.3190089000  1.4883302000  0.4414428000
B  0.4640822000  1.6883121000  1.5238846000
H  0.0341861000  -3.7377772000  -1.1971673000
N  -0.6296379000  0.8353057000  1.7092888000
B  -1.6389717000  0.0900917000  1.6400511000
H  -2.5819614000  -0.5997115000  1.6291404000
H  -1.6650778000  1.1113275000  -2.1746405000