16
charge=0, multiplicity=1, basis=def2-QZVPPD, AUX_BASIS_CORR=rimp2-def2-QZVPPD, SCF_ALGORITHM=GDM, xc_grid=000099000590, mem_total=15000, num_basis=919, num_pairs=345024, num_threads=4
B  -2.3057374000  0.4778357000  0.4382604000
C  0.1499540000  0.8741133000  -0.4028631000
Cl  0.2143166000  -1.1724364000  -3.2623765000
P  2.1994973000  -1.1614173000  -2.6160884000
H  -0.3859196000  -0.6011542000  0.7708029000
B  -2.4905176000  1.2004648000  1.9911088000
F  -2.8986805000  -0.8066606000  0.3512868000
H  3.2888739000  1.2058789000  -0.4253172000
O  -2.5800287000  1.7407352000  3.0801991000
Al  2.0464017000  -2.4299465000  -0.6962482000
Al  2.0468762000  0.2261438000  -0.4274257000
H  -2.6272163000  1.2379542000  -0.4519674000
N  -0.7388271000  0.2219161000  0.2681483000
N  2.1067427000  -1.3397366000  0.6590119000
H  -0.2699151000  1.7325053000  -0.9382662000
H  2.2441800000  -1.4061956000  1.6617347000