16
charge=0, multiplicity=2, basis=def2-QZVPPD, AUX_BASIS_CORR=rimp2-def2-QZVPPD, SCF_ALGORITHM=GDM, xc_grid=000099000590, mem_total=15000, num_basis=909, num_pairs=365012, num_threads=4
B  0.3619143000  0.1147224000  -1.4893219000
P  -1.4139587000  -2.1047696000  0.0185082000
H  1.0706589000  -0.0849227000  -0.2221517000
H  2.2554815000  1.9335334000  -1.4914157000
B  -1.4836977000  0.9779012000  0.0799444000
P  0.8377777000  1.9954198000  -1.5146643000
H  1.3952821000  1.6570762000  1.1860971000
Cl  -3.3185357000  -2.0768666000  0.8602444000
N  -0.4899881000  -1.5581686000  1.3791226000
H  -0.9500440000  -0.8299702000  1.9342252000
P  -1.5952605000  -0.2526724000  -1.2956059000
Si  1.1549260000  -1.1827374000  0.9404806000
H  1.7254778000  -2.4028780000  0.3027122000
H  0.9194185000  -0.6278918000  -2.2440464000
P  0.4995713000  2.6433759000  0.6270816000
N  -0.9690236000  1.7988484000  0.9287898000