16
charge=0, multiplicity=2, basis=def2-QZVPPD, AUX_BASIS_CORR=rimp2-def2-QZVPPD, SCF_ALGORITHM=GDM, xc_grid=000099000590, mem_total=15000, num_basis=838, num_pairs=302906, num_threads=4
S  1.3423820000  2.1141011000  0.8240084000
Si  -1.6284751000  0.1744099000  -0.1540502000
F  -0.4785107000  -0.7578495000  2.8071617000
H  0.7385063000  -0.5138427000  -0.4776634000
H  0.1914392000  1.3449097000  -2.9022904000
H  -0.6837004000  -2.8430665000  2.0364239000
H  -1.1817478000  -1.2925045000  0.8123977000
B  0.4432274000  1.1919151000  -1.7470955000
H  -0.1301265000  -0.8896655000  -1.8418339000
F  -2.5030053000  -0.7545399000  -1.1864671000
F  0.9520748000  -1.5464085000  1.2392367000
C  1.0229076000  2.2307947000  -0.8452646000
N  0.0472410000  -0.1599715000  -1.1492713000
Li  0.9869624000  0.2140900000  2.0917630000
H  1.2743111000  3.2079760000  -1.2581114000
B  -0.3934858000  -1.7203479000  1.7510563000