16
charge=0, multiplicity=1, basis=def2-QZVPPD, AUX_BASIS_CORR=rimp2-def2-QZVPPD, SCF_ALGORITHM=GDM, xc_grid=000099000590, mem_total=15000, num_basis=864, num_pairs=310726, num_threads=4
H  -1.9128636000  2.0830840000  3.4451017000
H  0.3240517000  -3.4489622000  -0.9362943000
Si  0.8341455000  -2.1702347000  -1.4953442000
H  -1.0441763000  -0.6220288000  -0.4619485000
Na  2.7171317000  0.4079459000  -0.3192403000
S  0.4234402000  1.0900555000  -1.8544610000
H  -1.3926337000  -0.7961503000  -2.4128543000
H  -2.3459219000  1.4159945000  -0.7991397000
Al  1.3021625000  1.1689197000  2.1114173000
H  2.0006854000  -1.7925447000  -0.6231396000
C  -0.6219839000  1.3262464000  1.3890220000
Si  -0.9996202000  1.0701775000  -0.3101631000
Cl  1.1050370000  1.6516483000  4.2478941000
B  -0.4883254000  -0.6648171000  -1.6399931000
B  -1.3375017000  1.7319821000  2.4861332000
H  1.4363727000  -2.4513161000  -2.8269902000