16
charge=0, multiplicity=2, basis=def2-QZVPPD, AUX_BASIS_CORR=rimp2-def2-QZVPPD, SCF_ALGORITHM=GDM, xc_grid=000099000590, mem_total=15000, num_basis=846, num_pairs=314616, num_threads=4
H  1.5800963000  0.3683256000  1.0765482000
H  0.1834270000  1.7057741000  -1.7470273000
H  -0.3153100000  -0.2463369000  -3.0963662000
N  -0.0690084000  0.9185684000  -1.1476296000
Al  -0.6446149000  1.4032376000  0.5712941000
C  -1.4704307000  -1.3062782000  -1.3039070000
S  0.3604848000  -0.9697497000  2.5678655000
F  2.3050143000  0.2350436000  -0.4672134000
H  -1.6781075000  -2.2256972000  -1.8384090000
S  -2.5246104000  0.2141424000  1.1916505000
H  1.1251515000  1.2212803000  2.4552730000
H  1.3841124000  0.4532834000  -0.8493049000
H  1.6263814000  -1.3112171000  2.8988390000
B  -0.6126180000  -0.2147213000  -1.9322341000
N  0.8041162000  0.5528880000  1.7523513000
B  -2.0540840000  -0.7985430000  -0.1317301000