16
charge=0, multiplicity=2, basis=def2-QZVPPD, AUX_BASIS_CORR=rimp2-def2-QZVPPD, SCF_ALGORITHM=GDM, xc_grid=000099000590, mem_total=15000, num_basis=830, num_pairs=309889, num_threads=4
H  1.8894918000  -0.8932098000  1.4760835000
Si  -1.1059489000  1.7215068000  -0.2230369000
H  1.1299676000  -0.9067816000  -1.3188923000
Cl  -1.3064601000  -2.3340762000  -0.3108725000
C  2.0458297000  -0.2688679000  0.5870123000
H  -2.4198468000  -0.8198029000  -1.3955029000
F  -2.6455969000  0.0528695000  -1.6947874000
H  0.8658316000  1.4117997000  -1.6769867000
C  -1.2088829000  0.2264500000  1.0818154000
N  0.4153309000  1.0408501000  -0.8409746000
B  -0.4868601000  -0.8259209000  0.2460388000
H  -0.5713532000  0.6299189000  1.8885283000
Mg  1.7321442000  1.8395710000  0.9792443000
C  0.8727325000  -0.3531033000  -0.4090877000
H  3.0004568000  -0.5567902000  0.1337890000
H  -2.2068362000  0.0355866000  1.4776296000