16
charge=0, multiplicity=1, basis=def2-QZVPPD, AUX_BASIS_CORR=rimp2-def2-QZVPPD, SCF_ALGORITHM=GDM, xc_grid=000099000590, mem_total=15000, num_basis=823, num_pairs=285817, num_threads=4
Mg  1.4206333000  -0.7749421000  0.8882563000
B  -0.0955333000  -2.1005366000  -0.4268417000
H  -0.3121321000  -3.1682298000  -0.9088262000
C  0.5700244000  -0.9329559000  -1.1798038000
Si  0.1292314000  0.9360492000  -2.2566080000
B  -0.8709722000  -0.4793612000  -1.2968318000
F  0.3761334000  0.4682123000  1.9289406000
F  3.0585592000  -1.2099860000  1.4146254000
H  -1.8521848000  -0.6999580000  -0.6611219000
H  -0.2785194000  -1.9954816000  0.7782699000
F  -0.1457184000  2.2079370000  -1.1049020000
H  -0.8301440000  2.2950389000  0.2804262000
H  -0.9489884000  3.0137028000  1.7057231000
O  -1.0974459000  2.1716399000  1.2453243000
H  -0.3387365000  1.2838903000  1.6543772000
H  1.2157932000  -1.0150191000  -2.0610075000