16
charge=0, multiplicity=2, basis=def2-QZVPPD, AUX_BASIS_CORR=rimp2-def2-QZVPPD, SCF_ALGORITHM=GDM, xc_grid=000099000590, mem_total=15000, num_basis=869, num_pairs=287317, num_threads=4
C  -1.9849655000  -3.0761525000  -0.6482809000
H  -0.7685057000  -1.5974732000  1.2632681000
B  -1.0553025000  -1.8677510000  -0.6895268000
H  -2.2953106000  -3.5239857000  0.2962324000
H  -2.3910015000  -3.5581792000  -1.5347798000
Cl  -0.6649486000  -1.2667935000  -2.4276817000
F  -0.0786580000  2.3287231000  0.7181870000
N  -0.4850562000  -1.1783747000  0.3763647000
C  0.9698865000  2.8367152000  1.7044569000
H  0.3520002000  3.3390061000  2.4485309000
S  1.9510844000  1.4814710000  2.2296146000
H  0.8962848000  0.0054520000  -1.9834630000
H  1.7769342000  1.3362421000  -1.8313677000
O  1.4774580000  0.5384883000  -1.3718575000
F  1.6158894000  3.7849513000  0.9639709000
Mg  0.6842109000  0.4176607000  0.4863319000