16
charge=0, multiplicity=2, basis=def2-QZVPPD, AUX_BASIS_CORR=rimp2-def2-QZVPPD, SCF_ALGORITHM=GDM, xc_grid=000099000590, mem_total=7500, num_basis=803, num_pairs=286948, num_threads=2
B  1.7995576000  -0.0475484000  -0.1871213000
O  -1.4990684000  1.1617758000  -1.1586617000
F  3.0505619000  -0.2624923000  -0.6422017000
B  -0.9030814000  -1.0861633000  0.8205046000
H  0.8405186000  -2.5568024000  -0.2582684000
H  1.8768582000  2.0155352000  0.1723615000
B  0.6142815000  -1.4226234000  0.0555664000
H  -1.1171623000  -1.3211920000  1.9750825000
H  1.5500284000  -1.0713172000  0.8246694000
H  0.8675214000  -0.7738384000  -1.0084596000
Al  -0.5210647000  1.1534605000  0.5421076000
H  -1.2410029000  2.3102392000  1.3514979000
H  -2.1630036000  1.8652583000  -1.2549634000
N  1.2592485000  1.2127382000  0.1591518000
Cl  -2.4275197000  -1.4542042000  -0.2302547000
H  -1.9866729000  0.2771744000  -1.1610108000