16
charge=0, multiplicity=2, basis=def2-QZVPPD, AUX_BASIS_CORR=rimp2-def2-QZVPPD, SCF_ALGORITHM=GDM, xc_grid=000099000590, mem_total=7500, num_basis=778, num_pairs=243914, num_threads=2
N  0.9103223000  1.0307987000  -3.0419182000
H  -0.4473861000  -1.4608652000  1.7225374000
H  0.2248808000  -0.5986963000  3.1482089000
C  0.3867847000  -0.8600228000  2.0968273000
H  1.1020800000  1.3131629000  -2.0726642000
P  0.4930534000  0.6463363000  1.1236690000
H  1.3185320000  -1.4231128000  1.9932670000
H  1.1567616000  1.6024263000  -3.8483857000
Li  -0.4402876000  -0.7333203000  -1.5036959000
Cl  -1.7633375000  -2.2095006000  -0.5641237000
O  0.5622268000  0.4611620000  -0.3778202000
H  -0.5382830000  1.4917247000  1.5554356000
H  -2.3287203000  -0.7136246000  0.4400680000
O  0.1256727000  0.0259705000  -3.2261509000
H  1.6487352000  1.3037065000  1.5997609000
F  -2.4110351000  0.1238547000  0.9549848000