16
charge=0, multiplicity=1, basis=def2-QZVPPD, AUX_BASIS_CORR=rimp2-def2-QZVPPD, SCF_ALGORITHM=GDM, xc_grid=000099000590, mem_total=15000, num_basis=847, num_pairs=288822, num_threads=4
H  -1.8845706000  -0.2677111000  -1.5802018000
H  3.2395733000  -1.2447766000  1.9893628000
C  -2.2981209000  -0.1517584000  -0.5810670000
P  1.3602610000  -0.2129781000  -1.3577253000
F  -2.0748880000  0.7833760000  1.7431936000
B  -3.5291423000  -0.7161976000  -0.2637753000
H  4.5316894000  -0.7049831000  0.8084951000
N  -0.2759206000  1.2353026000  0.2965256000
B  -1.5396627000  0.6258937000  0.4963534000
H  0.2021087000  1.7448927000  1.0314953000
B  2.4899420000  -0.5639014000  0.0560230000
F  -4.6631905000  -1.2228308000  0.0705997000
C  3.4699061000  -0.8544325000  0.9995214000
N  0.4742127000  1.1822895000  -0.8977917000
H  0.0233831000  1.6778115000  -1.6606044000
H  0.4744194000  -1.3099964000  -1.1504045000