16
charge=0, multiplicity=1, basis=def2-QZVPPD, mem_total=7500, AUX_BASIS_CORR=rimp2-def2-QZVPPD, SCF_ALGORITHM=GDM, xc_grid=000099000590, num_basis=798, num_pairs=277485, num_threads=2
O  -0.9966116000  1.3388551000  -2.1093443000
Al  1.7341113000  -0.0456743000  1.9457216000
Si  -0.6170991000  -0.1695370000  0.8946199000
H  -2.8938062000  2.4197520000  -0.2801091000
Li  0.5141712000  0.3532110000  -1.7249273000
H  -1.4384074000  1.7439509000  -2.8664892000
Cl  1.5103415000  -1.7220800000  -2.0066416000
Al  -1.6388559000  1.4760093000  -0.4435334000
H  1.2386601000  -2.0518660000  -0.6801837000
H  -0.7239762000  -2.8257681000  0.9836577000
B  0.1706240000  -2.0625584000  1.2361539000
H  -0.3716100000  2.5039675000  0.4434632000
H  0.5774090000  -2.1614111000  2.3792392000
B  0.3395317000  1.5120072000  0.7540923000
H  1.1648211000  -2.3076643000  0.5208094000
H  1.4306965000  1.9988063000  0.9534715000