16
charge=0, multiplicity=1, basis=def2-QZVPPD, AUX_BASIS_CORR=rimp2-def2-QZVPPD, SCF_ALGORITHM=GDM, xc_grid=000099000590, mem_total=15000, num_basis=843, num_pairs=301340, num_threads=4
H  -0.7119807000  1.5131635000  1.6467111000
B  -0.1920591000  2.2012907000  0.7218668000
H  -1.7794546000  2.6085868000  -1.9001991000
F  2.0010470000  -2.6309697000  0.8414097000
B  1.8215725000  -1.8336215000  1.9160583000
H  0.9997085000  1.8102518000  0.6819644000
H  -0.1732924000  -2.2739348000  -1.8803273000
Si  -1.8985199000  -0.7382536000  -0.5841941000
H  -0.2087122000  3.3435400000  1.0536197000
H  2.2986229000  -2.1828678000  2.9519063000
C  -0.7385738000  -1.3780340000  -2.1333763000
Al  0.1152998000  0.1514015000  0.6865072000
Si  -1.0583551000  1.6112037000  -1.0614135000
O  1.1262679000  -0.6886791000  1.7889884000
H  -1.3145391000  -1.4900646000  -3.0524510000
B  -0.2870317000  -0.0230129000  -1.6770707000