16
charge=0, multiplicity=2, basis=def2-QZVPPD, AUX_BASIS_CORR=rimp2-def2-QZVPPD, SCF_ALGORITHM=GDM, xc_grid=000099000590, mem_total=15000, num_basis=876, num_pairs=342791, num_threads=4
H  1.7144284000  -0.3795204000  -2.6237306000
F  -1.3698043000  -0.6850322000  0.3598931000
B  -0.0338303000  -0.1040850000  0.6260353000
H  0.9494862000  -2.0569239000  1.2791688000
N  -0.1805473000  1.1101974000  1.5376281000
Al  0.8213885000  2.2779068000  0.1418627000
C  1.0516429000  -1.2647429000  0.5276216000
H  2.0867036000  -0.8933636000  0.5716296000
P  -1.6263232000  2.1658683000  1.0853292000
O  -0.8424697000  -0.4080790000  -2.5130883000
H  0.0134482000  1.0801515000  2.5347216000
O  0.8274620000  -1.8937783000  -0.7703520000
H  -2.6276483000  1.1470084000  1.1749917000
Mg  -1.5911645000  0.6142013000  -1.1512697000
H  0.2730046000  0.5549960000  -0.4846159000
Si  0.5342230000  -1.2648045000  -2.2958252000