16
charge=0, multiplicity=2, basis=def2-QZVPPD, AUX_BASIS_CORR=rimp2-def2-QZVPPD, SCF_ALGORITHM=GDM, xc_grid=000099000590, mem_total=15000, num_basis=871, num_pairs=342353, num_threads=4
Na  0.9175031000  -1.1270187000  -1.8734486000
H  1.9293834000  0.4589592000  0.1432031000
S  2.1207193000  -2.3502112000  0.0943675000
H  1.2240057000  1.8680651000  0.9877546000
F  -2.1822648000  2.4109872000  -0.6132399000
H  -1.4422264000  -0.2368354000  -2.2301732000
B  -1.1819709000  -0.0147584000  -1.0790170000
Al  -1.8564031000  -0.0742258000  1.1420474000
B  1.0378447000  -1.9663274000  1.3905954000
S  0.4441659000  -0.2071616000  1.8551878000
H  0.2484433000  1.7632254000  -1.3719858000
H  0.5858776000  -2.7141527000  2.2067354000
H  -1.2681804000  -1.0712379000  -0.3786649000
C  0.9972412000  0.9125680000  0.5048855000
C  -1.5025451000  1.2777089000  -0.1926991000
C  -0.0715934000  1.0704151000  -0.5855481000