33
charge=0, multiplicity=1, basis=def2-QZVPPD, AUX_BASIS_CORR=rimp2-def2-QZVPPD, SCF_ALGORITHM=GDM, xc_grid=000099000590, mem_total=60000, num_basis=1605, num_pairs=897169, num_threads=16
N  -0.3257196700  2.7351766400  -0.0298919400
C  0.7681163300  2.0896696400  0.5058100600
C  0.4332733300  0.7952016400  0.8360140600
C  -0.9472106700  0.6320206400  0.4740560600
C  -1.8500816700  -0.4452233600  0.5606440600
C  -3.1499646700  -0.2552293600  0.1254660600
C  -3.5795706700  0.9847486400  -0.3982899400
C  -2.7088506700  2.0582596400  -0.4980789400
C  -1.3922406700  1.8671536400  -0.0612009400
H  -0.3397346700  3.6899946400  -0.3385749400
H  1.7118703300  2.6003946400  0.6104240600
H  -1.5629836700  -1.4046883600  0.9711030600
H  -4.6124066700  1.0887566400  -0.7022629400
H  -3.0441536700  3.0097076400  -0.8902869400
O  -4.0598466700  -1.2904843600  0.2488520600
C  -4.3376916700  -1.9250873600  -0.9965309400
H  -3.4299666700  -2.3635703600  -1.4183559400
H  -4.7591686700  -1.2203773600  -1.7165849400
H  -5.0614966700  -2.7098553600  -0.7929369400
C  1.3462413300  -0.2577023600  1.3803260600
C  1.8401983300  -1.2083573600  0.2750860600
N  2.5671193300  -0.5203543600  -0.7765189400
C  3.8922113300  -0.1696713600  -0.7387229400
C  4.7661953300  -0.9184033600  0.2487280600
H  0.8316803300  -0.8447863600  2.1460990600
H  2.2089783300  0.2111406400  1.8586060600
H  0.9848813300  -1.7087723600  -0.1809509400
H  2.4768413300  -1.9830483600  0.6987180600
H  2.0224783300  0.0859526400  -1.3720259400
O  4.3494643300  0.6751986400  -1.4956189400
H  4.7170383300  -1.9933853600  0.0770100600
H  4.4574593300  -0.7276183600  1.2765590600
H  5.7870403300  -0.5767603600  0.1133310600