33
charge=0, multiplicity=1, basis=def2-QZVPPD, AUX_BASIS_CORR=rimp2-def2-QZVPPD, SCF_ALGORITHM=GDM, xc_grid=000099000590, mem_total=60000, num_basis=1605, num_pairs=889271, num_threads=16
N  -0.2195666700  2.6397387000  0.1548970300
C  0.8674763300  1.9485957000  0.6455470300
C  0.5442193300  0.6215487000  0.8179120300
C  -0.8245816700  0.4828977000  0.4001300300
C  -1.7068876700  -0.6062713000  0.3409810300
C  -3.0027226700  -0.3992313000  -0.1166389700
C  -3.4341476700  0.8853377000  -0.5176489700
C  -2.5732706700  1.9765247000  -0.4637099700
C  -1.2723866700  1.7662997000  -0.0057129700
H  -0.2367036700  3.6218917000  -0.0492709700
H  1.8009463300  2.4542437000  0.8344050300
H  -1.4122796700  -1.6023203000  0.6444480300
H  -4.4414866700  1.0393677000  -0.8719109700
H  -2.9161366700  2.9558037000  -0.7718769700
O  -3.8057026700  -1.5114363000  -0.1460199700
C  -5.1345876700  -1.3339563000  -0.6060369700
H  -5.1569026700  -0.9792593000  -1.6387859700
H  -5.6882816700  -0.6381183000  0.0280720300
H  -5.5999676700  -2.3136813000  -0.5539219700
C  1.4574813300  -0.4755693000  1.2650980300
C  1.9857333300  -1.2953123000  0.0741200300
N  2.7294713300  -0.4898183000  -0.8778229700
C  4.0486103300  -0.1334713000  -0.7690549700
C  4.9072483300  -0.9772163000  0.1533570300
H  0.9333603300  -1.1477743000  1.9503650300
H  2.3043593300  -0.0539143000  1.8110340300
H  1.1461393300  -1.7484123000  -0.4545539700
H  2.6204383300  -2.1072593000  0.4247090300
H  2.1917093300  0.1714697000  -1.4185539700
O  4.5149603300  0.7925147000  -1.4180699700
H  4.8740013300  -2.0278243000  -0.1340659700
H  4.5722613300  -0.9010443000  1.1878510300
H  5.9271963300  -0.6143433000  0.0807300300