33
charge=0, multiplicity=1, basis=def2-QZVPPD, AUX_BASIS_CORR=rimp2-def2-QZVPPD, SCF_ALGORITHM=GDM, xc_grid=000099000590, mem_total=60000, num_basis=1605, num_pairs=869543, num_threads=16
N  -0.4509775800  2.4882253000  0.0226297300
C  0.6300904200  1.7237923000  -0.3621002700
C  0.2278154200  0.4252093000  -0.5915742700
C  -1.1828395800  0.3909383000  -0.3250082700
C  -2.1490575800  -0.6310987000  -0.3818062700
C  -3.4579945800  -0.3193187000  -0.0584822700
C  -3.8338515800  0.9886803000  0.3212317300
C  -2.9000195800  2.0105783000  0.3856497300
C  -1.5749095800  1.6964703000  0.0601217300
H  -0.4078845800  3.4555153000  0.2863117300
H  1.6088384200  2.1687523000  -0.4372002700
H  -1.8998685800  -1.6410027000  -0.6800562700
H  -4.8745425800  1.1836393000  0.5425527300
H  -3.1931615800  3.0135233000  0.6677337300
O  -4.4294225800  -1.3004177000  -0.1499502700
C  -4.7933795800  -1.8258997000  1.1241227300
H  -5.1921775800  -1.0451677000  1.7755887300
H  -3.9327405800  -2.2901527000  1.6115887300
H  -5.5603135800  -2.5750567000  0.9459147300
C  1.0580034200  -0.7336587000  -1.0636192700
C  2.5612764200  -0.4817587000  -1.0015732700
N  2.9786734200  -0.2806947000  0.3764417300
C  4.2663614200  -0.2201217000  0.8359777300
C  5.3427354200  -0.6357687000  -0.1464762700
H  0.7938784200  -0.9793657000  -2.0958452700
H  0.8263904200  -1.6169527000  -0.4621712700
H  2.8118644200  0.3817213000  -1.6282252700
H  3.0820154200  -1.3447347000  -1.4149352700
H  2.2917274200  0.0857623000  1.0180347300
O  4.5231004200  0.1277383000  1.9794927300
H  6.3060694200  -0.5179277000  0.3383447300
H  5.3116064200  -0.0248947000  -1.0489202700
H  5.2126944200  -1.6765537000  -0.4437932700