33
charge=0, multiplicity=1, basis=def2-QZVPPD, AUX_BASIS_CORR=rimp2-def2-QZVPPD, SCF_ALGORITHM=GDM, xc_grid=000099000590, mem_total=60000, num_basis=1605, num_pairs=872881, num_threads=16
N  0.4856379100  2.6160824200  -0.1948089400
C  -0.5604390900  1.7709714200  -0.4945279400
C  -0.1240190900  0.4619414200  -0.4698789400
C  1.2689349100  0.5101494200  -0.1279279400
C  2.2462579100  -0.4945525800  0.0440410600
C  3.5324989100  -0.1034005800  0.3851840600
C  3.8614559100  1.2647164200  0.5546720600
C  2.9178279100  2.2592534200  0.3860020600
C  1.6164259100  1.8685424200  0.0412290600
H  0.4122759100  3.6122524200  -0.0987859400
H  -1.5401060900  2.1710904200  -0.6985089400
H  1.9837789100  -1.5334505800  -0.0887489400
H  4.8805499100  1.5074444200  0.8215460600
H  3.1842069100  3.2998724200  0.5180250600
O  4.5809729100  -0.9609145800  0.5864410600
C  4.3001149100  -2.3418515800  0.4357150600
H  3.5418839100  -2.6726395800  1.1490800600
H  3.9657149100  -2.5704195800  -0.5788159400
H  5.2329709100  -2.8608835800  0.6336630600
C  -0.9087040900  -0.7816265800  -0.7743609400
C  -2.4174550900  -0.5619185800  -0.8282059400
N  -2.9082000900  -0.1386025800  0.4730710600
C  -4.2187480900  -0.0391025800  0.8545480600
C  -5.2338990900  -0.6555195800  -0.0869749400
H  -0.5886090900  -1.1945915800  -1.7352019400
H  -0.6942330900  -1.5424185800  -0.0185219400
H  -2.6503450900  0.1744624200  -1.6057839400
H  -2.9017310900  -1.4960665800  -1.1103599400
H  -2.2637460900  0.3599384200  1.0682290600
O  -4.5420050900  0.4960504200  1.9050950600
H  -6.2229280900  -0.4863765800  0.3255620600
H  -5.1725000900  -0.2110065800  -1.0805529400
H  -5.0638400900  -1.7274255800  -0.1901379400