33
charge=0, multiplicity=1, basis=def2-QZVPPD, AUX_BASIS_CORR=rimp2-def2-QZVPPD, SCF_ALGORITHM=GDM, xc_grid=000099000590, mem_total=60000, num_basis=1605, num_pairs=841923, num_threads=16
N  -0.8819451200  2.4860852700  -0.1235243000
C  0.3628388800  1.8914122700  -0.1476913000
C  0.2312948800  0.5212052700  -0.1158173000
C  -1.1805381200  0.2550572700  -0.0702843000
C  -1.9292891200  -0.9293937300  -0.0241293000
C  -3.3162591200  -0.8461127300  0.0123957000
C  -3.9683441200  0.4075612700  0.0041277000
C  -3.2394611200  1.5915892700  -0.0405283000
C  -1.8477301200  1.5053082700  -0.0773113000
H  -1.0510311200  3.4744592700  -0.1466573000
H  1.2506968800  2.5008302700  -0.1870543000
H  -1.4612241200  -1.9047907300  -0.0150823000
H  -5.0453141200  0.4651082700  0.0326807000
H  -3.7508461200  2.5455032700  -0.0459913000
O  -3.9812561200  -2.0450437300  0.0560577000
C  -5.3970001200  -1.9953857300  0.0964507000
H  -5.8065251200  -1.5125747300  -0.7935783000
H  -5.7543141200  -1.4748197300  0.9876827000
H  -5.7294431200  -3.0286337300  0.1280677000
C  1.3139808800  -0.5141857300  -0.1190223000
C  2.7131228800  0.0790912700  -0.2371133000
N  3.7027868800  -0.9848717300  -0.2389593000
C  5.0468648800  -0.8508407300  -0.0093983000
C  5.4982778800  0.4732502700  0.5730737000
H  1.1494708800  -1.2061897300  -0.9519433000
H  1.2644928800  -1.1129207300  0.7946027000
H  2.8986978800  0.7342662700  0.6129077000
H  2.7755088800  0.6871292700  -1.1460263000
H  3.4635568800  -1.8390537300  -0.7194003000
O  5.8270648800  -1.7628507300  -0.2392203000
H  5.0176728800  0.6600342700  1.5334137000
H  5.2506248800  1.3000892700  -0.0929773000
H  6.5735668800  0.4296872700  0.7102497000