33
charge=0, multiplicity=1, basis=def2-QZVPPD, AUX_BASIS_CORR=rimp2-def2-QZVPPD, SCF_ALGORITHM=GDM, xc_grid=000099000590, mem_total=60000, num_basis=1605, num_pairs=883958, num_threads=16
N  1.3761593300  -2.8576284500  0.0650210900
C  0.0847793300  -2.5271484500  0.4127640900
C  -0.0293396700  -1.1599954500  0.5428140900
C  1.2698593300  -0.6189954500  0.2582860900
C  1.7787313300  0.6988295500  0.2399040900
C  3.1183993300  0.8800875500  -0.0703859100
C  3.9579373300  -0.2235064500  -0.3633359100
C  3.4772003300  -1.5183144500  -0.3473559100
C  2.1239593300  -1.7064324500  -0.0330449100
H  1.7207703300  -3.7909094500  -0.0652139100
H  -0.6608226700  -3.2935144500  0.5510800900
H  1.1325233300  1.5327095500  0.4710760900
H  4.9930493300  -0.0193524500  -0.5989879100
H  4.1312543300  -2.3514054500  -0.5700579100
O  3.7493093300  2.0942675500  -0.1248209100
C  2.9521813300  3.2298305500  0.1639070900
H  2.5495743300  3.1846905500  1.1783910900
H  2.1290593300  3.3281615500  -0.5477089100
H  3.6102023300  4.0887855500  0.0747350900
C  -1.2704806700  -0.3864554500  0.8587020900
C  -1.8482026700  0.2937605500  -0.3932699100
N  -3.0247976700  1.1010295500  -0.1277249100
C  -4.3262076700  0.6759735500  -0.1002269100
C  -4.5974136700  -0.7110564500  -0.6498919100
H  -1.0589426700  0.3813375500  1.6083210900
H  -2.0272766700  -1.0451884500  1.2898660900
H  -2.0926356700  -0.4624674500  -1.1368409100
H  -1.0870476700  0.9333355500  -0.8422009100
H  -2.8930126700  2.0038095500  0.3013240900
O  -5.2226326700  1.3957405500  0.3154460900
H  -5.6582966700  -0.9092594500  -0.5388789100
H  -4.0290446700  -1.4727804500  -0.1169199100
H  -4.3287956700  -0.7679384500  -1.7047719100