33
charge=0, multiplicity=1, basis=def2-QZVPPD, AUX_BASIS_CORR=rimp2-def2-QZVPPD, SCF_ALGORITHM=GDM, xc_grid=000099000590, mem_total=60000, num_basis=1605, num_pairs=860372, num_threads=16
N  -0.9297197300  2.6378750300  0.0348193000
C  0.3531672700  2.1747760300  -0.1749867000
C  0.3423352700  0.8052470300  -0.3215537000
C  -1.0314337300  0.4004490300  -0.1944027000
C  -1.6688327300  -0.8470479700  -0.2492667000
C  -3.0477937300  -0.9042959700  -0.0840197000
C  -3.8016237300  0.2705010300  0.1362663000
C  -3.1836557300  1.5155640300  0.1936783000
C  -1.7997997300  1.5703100300  0.0273723000
H  -1.1828967300  3.5993690300  0.1667663000
H  1.1772592700  2.8683610300  -0.2042677000
H  -1.1207867300  -1.7648809700  -0.4160437000
H  -4.8717077300  0.2189720300  0.2637843000
H  -3.7722847300  2.4079200300  0.3631913000
O  -3.6013557300  -2.1576469700  -0.1502957000
C  -5.0056177300  -2.2513049700  0.0157883000
H  -5.5387097300  -1.6989859700  -0.7612207000
H  -5.3180687300  -1.8881209700  0.9973423000
H  -5.2446017300  -3.3072499700  -0.0678067000
C  1.5043222700  -0.1099229700  -0.5619917000
C  2.8419112700  0.6243880300  -0.6646157000
N  3.9681152700  -0.2613739700  -0.8943867000
C  4.7052742700  -0.9154499700  0.0574923000
C  4.5028582700  -0.4733389700  1.4936643000
H  1.3443192700  -0.6777299700  -1.4837837000
H  1.5674212700  -0.8498309700  0.2413893000
H  3.0246842700  1.1952510300  0.2442913000
H  2.8034962700  1.3423650300  -1.4855877000
H  4.0905052700  -0.6382669700  -1.8214327000
O  5.5083132700  -1.7847889700  -0.2475047000
H  5.1268352700  -1.0990369700  2.1230623000
H  3.4626442700  -0.5711449700  1.8030163000
H  4.7954262700  0.5690700300  1.6212423000