33
charge=0, multiplicity=1, basis=def2-QZVPPD, AUX_BASIS_CORR=rimp2-def2-QZVPPD, SCF_ALGORITHM=GDM, xc_grid=000099000590, mem_total=60000, num_basis=1605, num_pairs=906430, num_threads=16
N  -0.1806167000  2.6688453900  -0.4079891800
C  0.8155243000  1.8940403900  -0.9634121800
C  0.4009863000  0.5824903900  -1.0437511800
C  -0.9301557000  0.5493083900  -0.5051871800
C  -1.8697167000  -0.4912526100  -0.3274381800
C  -3.1024517000  -0.1755596100  0.2249028200
C  -3.4163617000  1.1531013900  0.6042618200
C  -2.5108077000  2.1828743900  0.4355448200
C  -1.2637587000  1.8690923900  -0.1225191800
H  -0.1402987000  3.6635413900  -0.2826781800
H  1.7510803000  2.3334693900  -1.2700971800
H  -1.6251967000  -1.4986236100  -0.6297721800
H  -4.3931557000  1.3378613900  1.0290798200
H  -2.7664617000  3.1937743900  0.7259498200
O  -4.1086617000  -1.0766376100  0.4531228200
C  -3.8459317000  -2.4184466100  0.0803238200
H  -2.9976097000  -2.8259606100  0.6351948200
H  -3.6499787000  -2.5017616100  -0.9910501800
H  -4.7418257000  -2.9794806100  0.3282498200
C  1.2111533000  -0.5796266100  -1.5238071800
C  1.6462623000  -1.4963656100  -0.3683491800
N  2.3862273000  -0.7855896100  0.6598118200
C  3.6888543000  -0.4298266100  0.4651488200
C  4.2822263000  0.4720613900  1.5291498200
H  2.1068483000  -0.2256036100  -2.0352531800
H  0.6399453000  -1.1752806100  -2.2416911800
H  2.2860133000  -2.2903956100  -0.7491111800
H  0.7757163000  -1.9489386100  0.1060978200
H  1.8595223000  -0.2761966100  1.3473508200
O  4.3432533000  -0.8209216100  -0.4921681800
H  5.2228563000  0.0407813900  1.8639218200
H  3.6250103000  0.6148863900  2.3849048200
H  4.5015093000  1.4403393900  1.0812588200