33
charge=0, multiplicity=1, basis=def2-QZVPPD, AUX_BASIS_CORR=rimp2-def2-QZVPPD, SCF_ALGORITHM=GDM, xc_grid=000099000590, mem_total=60000, num_basis=1605, num_pairs=891835, num_threads=16
N  -1.5446268500  -3.0241064500  0.0242884500
C  -0.1873018500  -3.0651014500  -0.2138975500
C  0.3053421500  -1.7893894500  -0.3666335500
C  -0.8180978500  -0.9044704500  -0.2135005500
C  -0.9594098500  0.4902395500  -0.2689835500
C  -2.2185938500  1.0485515500  -0.0841725500
C  -3.3462648500  0.2316295500  0.1562544500
C  -3.2249628500  -1.1528494500  0.2123374500
C  -1.9598148500  -1.7107084500  0.0266334500
H  -2.1366118500  -3.8249624500  0.1446954500
H  0.3322921500  -4.0085634500  -0.2645525500
H  -0.1206248500  1.1476255500  -0.4554155500
H  -4.3211438500  0.6711895500  0.2990484500
H  -4.0964828500  -1.7683064500  0.3945794500
O  -2.2750198500  2.4174705500  -0.1523635500
C  -3.5461758500  3.0194715500  0.0240854500
H  -3.9590248500  2.8011255500  1.0113864500
H  -4.2522458500  2.6958675500  -0.7437435500
H  -3.3831878500  4.0891435500  -0.0671925500
C  1.7294721500  -1.3912554500  -0.5935885500
C  2.3530631500  -0.7737884500  0.6691634500
N  3.7292361500  -0.3490454500  0.4922774500
C  4.1663021500  0.8620955500  0.0255834500
C  3.1258321500  1.9582535500  -0.0929275500
H  1.7969691500  -0.6685064500  -1.4110475500
H  2.3197141500  -2.2608264500  -0.8915105500
H  2.3208691500  -1.5071134500  1.4763004500
H  1.7563331500  0.0746175500  0.9982284500
H  4.4465191500  -1.0574664500  0.4907364500
O  5.3420761500  1.0493285500  -0.2525795500
H  2.6652451500  2.1685865500  0.8721624500
H  2.3353531500  1.6806155500  -0.7899475500
H  3.6249711500  2.8506485500  -0.4557045500