33
charge=0, multiplicity=1, basis=def2-QZVPPD, AUX_BASIS_CORR=rimp2-def2-QZVPPD, SCF_ALGORITHM=GDM, xc_grid=000099000590, mem_total=60000, num_basis=1605, num_pairs=938930, num_threads=16
N  -2.3828067600  -2.5017965200  -0.3091124800
C  -1.1154737600  -2.9373385100  0.0067645100
C  -0.3236627600  -1.8676085200  0.3640485200
C  -1.1593527600  -0.6987395200  0.2671065200
C  -0.9497027600  0.6718604900  0.5201985100
C  -2.0079477600  1.5496704800  0.3371675200
C  -3.2760387600  1.0935904900  -0.0850744800
C  -3.5119167600  -0.2502435200  -0.3269174900
C  -2.4425127600  -1.1358505100  -0.1511574900
H  -3.1520327600  -3.0931015200  -0.5652794800
H  -0.8685327600  -3.9862775200  -0.0349594800
H  0.0069562400  1.0476004800  0.8566565200
H  -4.0638297600  1.8244674800  -0.2046174800
H  -4.4881417600  -0.5951175100  -0.6429914800
O  -1.8821487600  2.8960444800  0.6044945200
C  -0.9556017600  3.5652164800  -0.2575214800
H  -1.2939427600  3.5055204800  -1.2950704800
H  0.0469432400  3.1461864900  -0.1839704800
H  -0.9436867600  4.6047894800  0.0593865100
C  1.1239412400  -1.9422685200  0.7459665200
C  2.0708882400  -1.5886505200  -0.4129734800
N  1.9317062400  -0.2185465100  -0.8734614800
C  2.5795572400  0.8708474800  -0.3608404800
C  3.8051042400  0.6048394800  0.4911865200
H  1.3576982400  -2.9567675200  1.0799735200
H  1.3266792400  -1.2734855200  1.5867995200
H  1.8675352400  -2.2524025100  -1.2547814800
H  3.1049342400  -1.7536535100  -0.1151874900
H  1.0720782400  0.0180864800  -1.3475564800
O  2.2018372400  2.0109314800  -0.6048884800
H  4.5443252400  0.0186244900  -0.0542204800
H  3.5444052400  0.0591684800  1.3983215100
H  4.2327422400  1.5644034800  0.7625115100