33
charge=0, multiplicity=1, basis=def2-QZVPPD, AUX_BASIS_CORR=rimp2-def2-QZVPPD, SCF_ALGORITHM=GDM, xc_grid=000099000590, mem_total=60000, num_basis=1605, num_pairs=863281, num_threads=16
N  0.2667134500  2.3149556100  -0.4029526100
C  -0.7983885500  1.5271176100  -0.7868236100
C  -0.4110085500  0.2055926100  -0.8463156100
C  0.9768304500  0.1792046100  -0.4718946100
C  1.9152394500  -0.8556663900  -0.3488646100
C  3.2109974500  -0.5442263900  0.0455693900
C  3.5860094500  0.7909516100  0.3179333900
C  2.6682904500  1.8292296100  0.1973813900
C  1.3684464500  1.5139936100  -0.1988396100
H  0.2303504500  3.3078526100  -0.2643326100
H  -1.7580945500  1.9734366100  -0.9908996100
H  1.6619234500  -1.8874763900  -0.5526486100
H  4.5937944500  1.0255136100  0.6234363900
H  2.9681464500  2.8478776100  0.4070013900
O  4.0719014500  -1.6074043900  0.1457093900
C  5.4038424500  -1.3233893900  0.5378443900
H  5.8986524500  -0.6604723900  -0.1753426100
H  5.4418014500  -0.8768403900  1.5339073900
H  5.9185394500  -2.2793773900  0.5545473900
C  -1.2354495500  -0.9798753900  -1.2604746100
C  -2.7373895500  -0.7208563900  -1.2387286100
N  -3.1717835500  -0.4018283900  0.1114843900
C  -4.4901555500  -0.3854783900  0.4501653900
C  -4.7916385500  0.0191916100  1.8798193900
H  -0.9537105500  -1.2926703900  -2.2694886100
H  -1.0129735500  -1.8231863900  -0.6008296100
H  -2.9971705500  0.0885896100  -1.9271646100
H  -3.2821925500  -1.6029723900  -1.5701316100
H  -2.4903225500  -0.0368723900  0.7535903900
O  -5.3740555500  -0.6897963900  -0.3393316100
H  -5.3248785500  -0.7959203900  2.3650463900
H  -3.9000505500  0.2568326100  2.4574213900
H  -5.4522165500  0.8839706100  1.8642053900