33
charge=0, multiplicity=1, basis=def2-QZVPPD, AUX_BASIS_CORR=rimp2-def2-QZVPPD, SCF_ALGORITHM=GDM, xc_grid=000099000590, mem_total=60000, num_basis=1605, num_pairs=901699, num_threads=16
N  -0.0648992700  2.4616648500  -0.5111366100
C  0.9347397300  1.6744438500  -1.0449086100
C  0.5556047300  0.3514198500  -1.0246366100
C  -0.7575482700  0.3212438500  -0.4415796100
C  -1.6686602700  -0.7150541500  -0.1585816100
C  -2.8831012700  -0.3899881500  0.4204523900
C  -3.2215612700  0.9469658500  0.7259233900
C  -2.3460582700  1.9856258500  0.4499773900
C  -1.1169922700  1.6589788500  -0.1358146100
H  -0.0429322700  3.4627678500  -0.4468586100
H  1.8488877300  2.1151888500  -1.4090736100
H  -1.4454502700  -1.7514181500  -0.3761166100
H  -4.1746772700  1.1446348500  1.1976903900
H  -2.6064232700  3.0086578500  0.6894663900
O  -3.7701882700  -1.4018281500  0.7446233900
C  -4.8371492700  -1.5107391500  -0.1942066100
H  -5.4161482700  -0.5859571500  -0.2448856100
H  -4.4539412700  -1.7450831500  -1.1902486100
H  -5.4762252700  -2.3193221500  0.1508143900
C  1.3833847300  -0.8178501500  -1.4539576100
C  1.8599597300  -1.6601961500  -0.2585396100
N  2.5780597300  -0.8750571500  0.7304383900
C  3.8482697300  -0.4399341500  0.4939673900
C  4.4111397300  0.5170168500  1.5259693900
H  0.8138867300  -1.4657641500  -2.1261456100
H  2.2609727300  -0.4715321500  -2.0002396100
H  1.0109097300  -2.1222111500  0.2441613900
H  2.5247047300  -2.4479401500  -0.6089396100
H  2.0412107300  -0.3998281500  1.4339983900
O  4.4993297300  -0.8041841500  -0.4764826100
H  4.5491107300  1.4909708500  1.0583483900
H  3.7726807300  0.6281108500  2.4004253900
H  5.3891047300  0.1561968500  1.8360953900