33
charge=0, multiplicity=1, basis=def2-QZVPPD, AUX_BASIS_CORR=rimp2-def2-QZVPPD, SCF_ALGORITHM=GDM, xc_grid=000099000590, mem_total=60000, num_basis=1605, num_pairs=863558, num_threads=16
N  1.2435258500  2.9769336700  0.0057745800
C  -0.0478521500  2.6123976700  0.3252965800
C  -0.1502591500  1.2408716700  0.3760595800
C  1.1559338500  0.7302326700  0.0665245800
C  1.6880408500  -0.5695593300  -0.0311594200
C  3.0252298500  -0.7153503300  -0.3563274200
C  3.8552448500  0.4042146700  -0.5868794200
C  3.3573058500  1.6941286700  -0.4881774200
C  2.0048068500  1.8434526700  -0.1580194200
H  1.5733958500  3.9201606700  -0.0847704200
H  -0.8052411500  3.3602896700  0.4961605800
H  1.0821518500  -1.4516163300  0.1318005800
H  4.8878278500  0.2358416700  -0.8616694200
H  3.9946468500  2.5497066700  -0.6712004200
O  3.5504278500  -1.9887923300  -0.4996094200
C  4.3442168500  -2.3784023300  0.6177125800
H  5.1906018500  -1.7025933300  0.7585385800
H  3.7456348500  -2.3925193300  1.5318555800
H  4.7122688500  -3.3791693300  0.4066915800
C  -1.3872141500  0.4404176700  0.6349705800
C  -1.9832341500  -0.1053653300  -0.6706844200
N  -3.1775851500  -0.9056823300  -0.4549494200
C  -4.3862661500  -0.3231773300  -0.2181904200
C  -5.5328171500  -1.2775493300  0.0494945800
H  -1.1625521500  -0.3967833300  1.3014915800
H  -2.1429951500  1.0556046700  1.1237465800
H  -2.2503621500  0.7305076700  -1.3152824200
H  -1.2506221500  -0.7186753300  -1.1951064200
H  -3.0955391500  -1.9021053300  -0.3709724200
O  -4.5411201500  0.8907946700  -0.2255104200
H  -6.3423171500  -1.0463523300  -0.6393674200
H  -5.2569791500  -2.3249853300  -0.0588514200
H  -5.8983041500  -1.1068763300  1.0606095800