33
charge=0, multiplicity=1, basis=def2-QZVPPD, AUX_BASIS_CORR=rimp2-def2-QZVPPD, SCF_ALGORITHM=GDM, xc_grid=000099000590, mem_total=60000, num_basis=1605, num_pairs=900208, num_threads=16
N  -0.3564677600  2.8339182700  0.1904291500
C  0.6926642400  2.0828372700  0.6725761500
C  0.3185062400  0.7587022700  0.7565301500
C  -1.0378567600  0.6922262700  0.2907191500
C  -1.9528737600  -0.3743527300  0.1446111500
C  -3.2216077600  -0.0879857300  -0.3372938500
C  -3.5947317600  1.2365822700  -0.6759188500
C  -2.7131387600  2.2909732700  -0.5375868500
C  -1.4291727600  2.0067112700  -0.0517238500
H  -0.3376637600  3.8262342700  0.0421701500
H  1.6348552400  2.5453382700  0.9189201500
H  -1.6605337600  -1.3793737300  0.4107621500
H  -4.5973237600  1.3974302700  -1.0468578500
H  -3.0131737600  3.2976402700  -0.7982978500
O  -4.2107117600  -1.0157087300  -0.5300758500
C  -3.8866087600  -2.3559037300  -0.2037628500
H  -3.6308097600  -2.4564817300  0.8535251500
H  -3.0571057600  -2.7232387300  -0.8125268500
H  -4.7765367600  -2.9402457300  -0.4168528500
C  1.1818972400  -0.3924297300  1.1662671500
C  1.7323592400  -1.1521487300  -0.0540758500
N  2.5362312400  -0.3128357300  -0.9240288500
C  3.8612582400  -0.0093267300  -0.7438818500
C  4.6574442400  -0.9414827300  0.1489351500
H  0.6134732400  -1.0896417300  1.7886601500
H  2.0190442400  -0.0327467300  1.7686111500
H  0.9009362400  -1.5435637300  -0.6420578500
H  2.3285672400  -2.0046237300  0.2668001500
H  2.0400632400  0.4030132700  -1.4343638500
O  4.3803702400  0.9416132700  -1.3112098500
H  4.6009242400  -1.9690827300  -0.2092968500
H  4.2871472400  -0.9217577300  1.1739781500
H  5.6905752400  -0.6102897300  0.1363171500