33
charge=0, multiplicity=1, basis=def2-QZVPPD, AUX_BASIS_CORR=rimp2-def2-QZVPPD, SCF_ALGORITHM=GDM, xc_grid=000099000590, mem_total=60000, num_basis=1605, num_pairs=941959, num_threads=16
N  0.5408435500  2.2231980000  -0.9134867900
C  1.4004635500  1.2541660000  -1.3831337900
C  0.8395235500  0.0079200000  -1.2133617900
C  -0.4378664500  0.2229650000  -0.5946647900
C  -1.4610874500  -0.6418680000  -0.1608967900
C  -2.5868654500  -0.0920290000  0.4271342100
C  -2.7257064500  1.3041390000  0.5944492100
C  -1.7352814500  2.1763620000  0.1711332100
C  -0.5938354500  1.6218140000  -0.4209637900
H  0.7306585500  3.2088550000  -0.9083327900
H  2.3615235500  1.5256590000  -1.7887317900
H  -1.3879254500  -1.7167900000  -0.2651177900
H  -3.6156124500  1.6812700000  1.0800922100
H  -1.8406624500  3.2446960000  0.3091842100
O  -3.5796104500  -0.9321590000  0.9002152100
C  -4.7161734500  -0.9706990000  0.0410232100
H  -4.4413444500  -1.3465750000  -0.9474847900
H  -5.1652644500  0.0189220000  -0.0675757900
H  -5.4336494500  -1.6447190000  0.5016352100
C  1.4916765500  -1.3127530000  -1.4682037900
C  2.2475445500  -1.8230950000  -0.2257957900
N  3.3623665500  -0.9687600000  0.1381352100
C  3.3273755500  0.1199210000  0.9759252100
C  2.1941285500  0.1818290000  1.9776712100
H  2.1977105500  -1.2353410000  -2.2986657900
H  0.7440545500  -2.0565200000  -1.7556827900
H  2.6297045500  -2.8280770000  -0.4155747900
H  1.5657045500  -1.8908930000  0.6196412100
H  4.1192415500  -0.9086290000  -0.5272967900
O  4.2104835500  0.9663420000  0.9391382100
H  2.1240735500  -0.7433480000  2.5497092100
H  1.2392385500  0.3451160000  1.4787182100
H  2.3945695500  1.0090810000  2.6511652100