33
charge=0, multiplicity=1, basis=def2-QZVPPD, AUX_BASIS_CORR=rimp2-def2-QZVPPD, SCF_ALGORITHM=GDM, xc_grid=000099000590, mem_total=60000, num_basis=1605, num_pairs=893614, num_threads=16
N  -0.2442783600  2.6343992100  0.2746626100
C  0.8100656400  1.8716502100  0.7294596100
C  0.4657116400  0.5382262100  0.7122586100
C  -0.8779383600  0.4763472100  0.2083666100
C  -1.7716203600  -0.5836757900  -0.0378923900
C  -3.0267243600  -0.2874247900  -0.5398923900
C  -3.4215133600  1.0434332100  -0.8031613900
C  -2.5632253600  2.1043022100  -0.5612183900
C  -1.2926503600  1.8066282100  -0.0533843900
H  -0.2400953600  3.6343612100  0.1896636100
H  1.7352986400  2.3358072100  1.0310906100
H  -1.5030553600  -1.6162647900  0.1440756100
H  -4.4049803600  1.2194452100  -1.2176423900
H  -2.8666913600  3.1220242100  -0.7701773900
O  -3.8981103600  -1.3223817900  -0.8308133900
C  -4.9306823600  -1.4561427900  0.1424386100
H  -5.5329143600  -0.5475507900  0.2099766100
H  -4.5089853600  -1.6768107900  1.1260366100
H  -5.5585763600  -2.2827507900  -0.1795713900
C  1.3446336400  -0.6209567900  1.0618086100
C  1.9511006400  -1.2728137900  -0.1941293900
N  2.7579086400  -0.3508397900  -0.9729023900
C  4.0656676400  -0.0225657900  -0.7246863900
C  4.8597186400  -0.9918987900  0.1294836100
H  0.7743486400  -1.3759717900  1.6101046100
H  2.1533056400  -0.2890657900  1.7166126100
H  1.1486866400  -1.6397027900  -0.8354273900
H  2.5599096400  -2.1319457900  0.0820616100
H  2.2585126400  0.3811482100  -1.4561813900
O  4.5735546400  0.9806662100  -1.2058523900
H  4.8504556400  -1.9917727900  -0.3037233900
H  4.4521656400  -1.0587627900  1.1382226100
H  5.8809976400  -0.6291397900  0.1803336100