33
charge=0, multiplicity=1, basis=def2-QZVPPD, AUX_BASIS_CORR=rimp2-def2-QZVPPD, SCF_ALGORITHM=GDM, xc_grid=000099000590, mem_total=60000, num_basis=1605, num_pairs=867549, num_threads=16
N  -1.0702130900  2.6801939700  0.1508837900
C  0.2209999100  2.2441119700  -0.0656872100
C  0.2178689100  0.8986319700  -0.3626972100
C  -1.1572850900  0.4851359700  -0.3267912100
C  -1.7956840900  -0.7506120300  -0.5411562100
C  -3.1745840900  -0.8069550300  -0.4356842100
C  -3.9385960900  0.3384029700  -0.1191742100
C  -3.3312260900  1.5646599700  0.1009707900
C  -1.9362180900  1.6230559700  -0.0040192100
H  -1.3320690900  3.6230729700  0.3721667900
H  1.0428809100  2.9366679700  0.0095247900
H  -1.2428100900  -1.6451150300  -0.7968532100
H  -5.0151060900  0.2440569700  -0.0710312100
H  -3.9206620900  2.4418599700  0.3346917900
O  -3.8251690900  -2.0021050300  -0.6870742100
C  -4.2154740900  -2.6706550300  0.5095957900
H  -4.8973630900  -2.0563750300  1.1019657900
H  -3.3418440900  -2.9188240300  1.1171367900
H  -4.7211100900  -3.5839300300  0.2071547900
C  1.3901899100  0.0141849700  -0.6624452100
C  2.7264719100  0.7582709700  -0.6578722100
N  3.8619849100  -0.0985700300  -0.9436172100
C  4.5769479100  -0.8413840300  -0.0409602100
C  4.3367669100  -0.5406740300  1.4256937900
H  1.2561339100  -0.4594670300  -1.6397202100
H  1.4373109100  -0.8013880300  0.0651657900
H  2.8833339100  1.2376919700  0.3069897900
H  2.7054109100  1.5531049700  -1.4053382100
H  4.0098679100  -0.3828590300  -1.8995512100
O  5.3903379100  -1.6762380300  -0.4080822100
H  4.9461429100  -1.2243910300  2.0072327900
H  3.2892759100  -0.6680100300  1.6975097900
H  4.6234889100  0.4844489700  1.6610717900