33
charge=0, multiplicity=1, basis=def2-QZVPPD, AUX_BASIS_CORR=rimp2-def2-QZVPPD, SCF_ALGORITHM=GDM, xc_grid=000099000590, mem_total=60000, num_basis=1605, num_pairs=973478, num_threads=16
N  0.8806224500  2.7947833300  0.1396740900
C  1.7690164500  2.1133403300  -0.6603609100
C  1.1897674500  0.9505943300  -1.1181019100
C  -0.1313025500  0.9149143300  -0.5623699100
C  -1.1962765500  -0.0085936700  -0.6667749100
C  -2.3653055500  0.2524313300  0.0324320900
C  -2.4958605500  1.4143403300  0.8333890900
C  -1.4707845500  2.3354843300  0.9354010900
C  -0.2875495500  2.0766943300  0.2293300900
H  1.0831484500  3.6444583300  0.6335690900
H  2.7635784500  2.4950733300  -0.8234799100
H  -1.0939525500  -0.8855336700  -1.2892429100
H  -3.4293725500  1.5623553300  1.3582080900
H  -1.5862485500  3.2217833300  1.5459190900
O  -3.4756565500  -0.5525026700  0.0260550900
C  -3.3996265500  -1.7194126700  -0.7719949100
H  -3.2351705500  -1.4728336700  -1.8235059100
H  -2.6028015500  -2.3846746700  -0.4292669100
H  -4.3566325500  -2.2209416700  -0.6640439100
C  1.8645474500  -0.1474146700  -1.8802119100
C  2.6197294500  -1.1033106700  -0.9364379100
N  1.7890394500  -1.5820256700  0.1548200900
C  1.7815114500  -0.9495256700  1.3735360900
C  0.6219464500  -1.3241246700  2.2727600900
H  1.1223764500  -0.7104956700  -2.4527889100
H  2.5759044500  0.2570613300  -2.6041259100
H  3.0118444500  -1.9551926700  -1.4951979100
H  3.4542964500  -0.5816106700  -0.4734159100
H  0.9592904500  -2.0982806700  -0.0828159100
O  2.6385644500  -0.1474486700  1.7123730900
H  -0.1805305500  -0.6014346700  2.1163350900
H  0.2357934500  -2.3208016700  2.0622580900
H  0.9460934500  -1.2671556700  3.3080760900