33
charge=0, multiplicity=1, basis=def2-QZVPPD, AUX_BASIS_CORR=rimp2-def2-QZVPPD, SCF_ALGORITHM=GDM, xc_grid=000099000590, mem_total=60000, num_basis=1605, num_pairs=878629, num_threads=16
N  -1.8897475500  -2.9370487900  -0.0317526100
C  -0.5279585500  -3.0380417900  -0.2301686100
C  0.0280044500  -1.7842837900  -0.3344546100
C  -1.0560875500  -0.8490757900  -0.1932606100
C  -1.1172605500  0.5525292100  -0.2177346100
C  -2.3547025500  1.1664122100  -0.0596116100
C  -3.5298785500  0.4024542100  0.1232633900
C  -3.4826685500  -0.9878817900  0.1493593900
C  -2.2416605500  -1.6042727900  -0.0098896100
H  -2.5235925500  -3.7105047900  0.0442383900
H  -0.0533715500  -4.0044697900  -0.2901266100
H  -0.2326355500  1.1622822100  -0.3547066100
H  -4.4855375500  0.8881992100  0.2454193900
H  -4.3902935500  -1.5611607900  0.2884793900
O  -2.3450875500  2.5380742100  -0.0939586100
C  -3.5893835500  3.1953882100  0.0609953900
H  -4.0440495500  2.9724512100  1.0291433900
H  -4.2874835500  2.9274432100  -0.7355856100
H  -3.3729455500  4.2580922100  0.0040973900
C  1.4687704500  -1.4298307900  -0.5193646100
C  2.0685264500  -0.8413257900  0.7661493900
N  3.3965064500  -0.2841687900  0.5660653900
C  3.5606464500  0.9427522100  -0.0035606100
C  4.9951644500  1.3729222100  -0.2350026100
H  1.5691654500  -0.6829197900  -1.3093386100
H  2.0425474500  -2.3092237900  -0.8213006100
H  2.1281454500  -1.6079357900  1.5387363900
H  1.4261464500  -0.0429237900  1.1325283900
H  4.2041944500  -0.8603957900  0.7156443900
O  2.6129684500  1.6558002100  -0.3068706100
H  5.1673914500  1.4475772100  -1.3075106100
H  5.7243524500  0.6897632100  0.1970413900
H  5.1318144500  2.3633232100  0.1930363900