33
charge=0, multiplicity=1, basis=def2-QZVPPD, AUX_BASIS_CORR=rimp2-def2-QZVPPD, SCF_ALGORITHM=GDM, xc_grid=000099000590, mem_total=60000, num_basis=1605, num_pairs=866532, num_threads=16
N  -1.0354343900  2.6593503900  -0.0767390300
C  0.2424366100  2.1806213900  -0.2820610300
C  0.2372406100  0.8030393900  -0.2537550300
C  -1.1248533900  0.4138293900  -0.0159450300
C  -1.7586013900  -0.8356506100  0.1173849700
C  -3.1214023900  -0.8609536100  0.3577669700
C  -3.8742663900  0.3293613900  0.4678629700
C  -3.2724513900  1.5708673900  0.3354809700
C  -1.8940953900  1.5981693900  0.0907959700
H  -1.2909903900  3.6290173900  -0.0452830300
H  1.0570866100  2.8688893900  -0.4350460300
H  -1.2108633900  -1.7666456100  0.0509619700
H  -4.9325173900  0.2536193900  0.6787139700
H  -3.8510003900  2.4808163900  0.4293609700
O  -3.7551993900  -2.0779246100  0.5369659700
C  -4.4716743900  -2.4938346100  -0.6227090300
H  -3.7947263900  -2.6224606100  -1.4707350300
H  -5.2444783900  -1.7701766100  -0.8915790300
H  -4.9362493900  -3.4456356100  -0.3788740300
C  1.3964816100  -0.1306786100  -0.4293450300
C  2.7242536100  0.5909513900  -0.6652200300
N  3.8471396100  -0.3121026100  -0.8345630300
C  4.6229406100  -0.8527136100  0.1573979700
C  4.4700046100  -0.2517596100  1.5409469700
H  1.2080736100  -0.8020056100  -1.2728170300
H  1.4937956100  -0.7717376100  0.4516249700
H  2.9359936100  1.2627043900  0.1650599700
H  2.6505656100  1.2100393900  -1.5609290300
H  3.9394816100  -0.7901276100  -1.7173940300
O  5.4199806100  -1.7487166100  -0.0776440300
H  5.1203046100  -0.8009706100  2.2135879700
H  3.4424156100  -0.3161546100  1.8975959700
H  4.7606096100  0.7989723900  1.5391299700