33
charge=0, multiplicity=1, basis=def2-QZVPPD, AUX_BASIS_CORR=rimp2-def2-QZVPPD, SCF_ALGORITHM=GDM, xc_grid=000099000590, mem_total=60000, num_basis=1605, num_pairs=955625, num_threads=16
N  0.2959340300  2.7361984900  0.5765707600
C  1.3394900300  2.3574454900  -0.2397872400
C  1.0705740300  1.1317944900  -0.8093002400
C  -0.2247549700  0.7392324800  -0.3257192400
C  -1.0470719700  -0.3827595200  -0.5475742400
C  -2.2755889700  -0.4379745200  0.0853177600
C  -2.7122099700  0.5942214800  0.9462197600
C  -1.9233389700  1.7080244800  1.1816077600
C  -0.6827889700  1.7689794800  0.5345247600
H  0.2317110300  3.6089254800  1.0678857600
H  2.2028650300  2.9928254800  -0.3573132400
H  -0.7390029700  -1.2054505200  -1.1778682400
H  -3.6697849700  0.4867634800  1.4376857600
H  -2.2547479700  2.4935824800  1.8484727600
O  -3.0801779700  -1.5477735200  -0.0951662400
C  -4.1449629700  -1.3032005100  -1.0089232400
H  -4.7925219700  -0.4961495200  -0.6580962400
H  -3.7563899700  -1.0420045200  -1.9965322400
H  -4.7183789700  -2.2241955200  -1.0744072400
C  1.9973180300  0.3525374900  -1.6895272400
C  2.8510810300  -0.6663805100  -0.9137722400
N  2.0848650300  -1.7408925200  -0.3167002400
C  1.6162820300  -1.8483995200  0.9682727600
C  2.0752660300  -0.8001885200  1.9609647600
H  1.4313190300  -0.1760935200  -2.4610552400
H  2.6750560300  1.0365114800  -2.2076502400
H  3.5876590300  -1.1057915100  -1.5906852400
H  3.4039550300  -0.1515955100  -0.1302262400
H  1.7226530300  -2.4564905200  -0.9275542400
O  0.8830580300  -2.7716115200  1.2896447600
H  3.1615690300  -0.8050445200  2.0587727600
H  1.7630770300  0.1966224800  1.6521147600
H  1.6279890300  -1.0416685200  2.9198037600