33
charge=0, multiplicity=1, basis=def2-QZVPPD, AUX_BASIS_CORR=rimp2-def2-QZVPPD, SCF_ALGORITHM=GDM, xc_grid=000099000590, mem_total=60000, num_basis=1605, num_pairs=849972, num_threads=16
N  -0.9795003000  2.5289416100  -0.1846863300
C  0.2636067000  1.9303536100  -0.1923173300
C  0.1301537000  0.5712276100  -0.0130173300
C  -1.2782953000  0.3204856100  0.1121316700
C  -2.0336033000  -0.8504773900  0.3099376700
C  -3.4104963000  -0.7400493900  0.3962706700
C  -4.0593183000  0.5103646100  0.2892726700
C  -3.3365923000  1.6760236100  0.0897946700
C  -1.9436323000  1.5658286100  0.0006166700
H  -1.1481373000  3.5119176100  -0.2936813300
H  1.1495907000  2.5283056100  -0.3280463300
H  -1.5694873000  -1.8229853900  0.4096626700
H  -5.1360633000  0.5441016100  0.3869226700
H  -3.8365223000  2.6332766100  0.0173306700
O  -4.1661763000  -1.8740423900  0.6363096700
C  -4.8100533000  -2.3583253900  -0.5393373300
H  -4.0738053000  -2.6354253900  -1.2977003300
H  -5.4865993000  -1.6098453900  -0.9577973300
H  -5.3792393000  -3.2361943900  -0.2451373300
C  1.2107707000  -0.4648233900  0.0507146700
C  2.6059587000  0.1072036100  -0.1729373300
N  3.5932357000  -0.9564553900  -0.1034733300
C  4.9445097000  -0.8070413900  0.0695496700
C  5.4162047000  0.5634466100  0.5114316700
H  1.0176777000  -1.2357113900  -0.7029703300
H  1.1915227000  -0.9688093900  1.0207546700
H  2.8214717000  0.8419846100  0.6015256700
H  2.6380047000  0.6225736100  -1.1389593300
H  3.3386297000  -1.8507313900  -0.4948133300
O  5.7152817000  -1.7399913900  -0.0991903300
H  4.9648097000  0.8423676100  1.4635466700
H  5.1511187000  1.3251756100  -0.2221533300
H  6.4949747000  0.5273306100  0.6204456700