33
charge=0, multiplicity=1, basis=def2-QZVPPD, AUX_BASIS_CORR=rimp2-def2-QZVPPD, SCF_ALGORITHM=GDM, xc_grid=000099000590, mem_total=60000, num_basis=1605, num_pairs=898663, num_threads=16
N  1.7221379100  -2.9574959400  0.0201291500
C  0.3771969100  -3.0186099400  0.3172211500
C  -0.1522200900  -1.7488449400  0.3649761500
C  0.9328339100  -0.8514359400  0.0789331500
C  1.0328059100  0.5504580600  -0.0084068500
C  2.2624009100  1.1094790600  -0.3094218500
C  3.4052269100  0.3071830600  -0.5244758500
C  3.3347779100  -1.0740169400  -0.4353568500
C  2.0913179100  -1.6409199400  -0.1298448500
H  2.3348329100  -3.7482559400  -0.0581858500
H  -0.1059710900  -3.9682809400  0.4816501500
H  0.1799829100  1.1994990600  0.1413861500
H  4.3377209100  0.7920320600  -0.7801558500
H  4.2109009100  -1.6861439400  -0.6064398500
O  2.3635199100  2.4826520600  -0.4451568500
C  2.9729749100  3.0994650600  0.6863631500
H  3.9857159100  2.7229500600  0.8457501500
H  2.3818649100  2.9229520600  1.5881861500
H  3.0119729100  4.1653700600  0.4779601500
C  -1.5793790900  -1.3731429400  0.6114131500
C  -2.2730720900  -0.9063749400  -0.6792888500
N  -3.6543530900  -0.5067999400  -0.4865098500
C  -4.1132060900  0.7323000600  -0.1260118500
C  -3.1056920900  1.8646250600  -0.1615628500
H  -1.6400140900  -0.5737499400  1.3545801500
H  -2.1269770900  -2.2254909400  1.0198401500
H  -2.2482310900  -1.7168929400  -1.4091168500
H  -1.7188540900  -0.0788429400  -1.1177908500
H  -4.3476750900  -1.2318779400  -0.3871228500
O  -5.2827520900  0.9125240600  0.1808641500
H  -2.6913350900  1.9906760600  -1.1616478500
H  -2.2792440900  1.6809990600  0.5248161500
H  -3.6192080900  2.7740120600  0.1324271500