33
charge=0, multiplicity=1, basis=def2-QZVPPD, AUX_BASIS_CORR=rimp2-def2-QZVPPD, SCF_ALGORITHM=GDM, xc_grid=000099000590, mem_total=60000, num_basis=1605, num_pairs=871497, num_threads=16
N  1.4962322100  -3.0571655800  -0.0400024900
C  0.1923882100  -2.7318265800  0.2657915200
C  0.0710282100  -1.3666365800  0.4045875100
C  1.3775702100  -0.8210635800  0.1681155200
C  1.8836172100  0.4978124200  0.1753415200
C  3.2322272100  0.6849304200  -0.0892804800
C  4.0844412100  -0.4135755800  -0.3617374800
C  3.6065492100  -1.7099475800  -0.3709864800
C  2.2443602100  -1.9042675800  -0.1034884800
H  1.8448522100  -3.9882115800  -0.1748704800
H  -0.5594727900  -3.4980105800  0.3643595100
H  1.2266532100  1.3278394200  0.3899105200
H  5.1262642100  -0.2051915800  -0.5614834800
H  4.2700492100  -2.5396535800  -0.5781894800
O  3.8613262100  1.9029404200  -0.1146254800
C  3.0514702100  3.0322324200  0.1575245200
H  2.6153882100  2.9771554200  1.1577755200
H  2.2512082100  3.1343304200  -0.5795164900
H  3.7084002100  3.8947664200  0.0975055200
C  -1.1851967900  -0.6026165800  0.6806915100
C  -1.7594347900  0.0149414200  -0.6024234800
N  -2.9751407900  0.7777104200  -0.3687364800
C  -4.1787107900  0.1587024200  -0.2080344800
C  -5.3480057900  1.0712024200  0.1040325100
H  -0.9921037900  0.1940124200  1.4048285200
H  -1.9423017900  -1.2588965800  1.1106685200
H  -1.9943037900  -0.7823545800  -1.3055354800
H  -1.0260407900  0.6731414200  -1.0684834800
H  -2.9134167900  1.7642314200  -0.1964824900
O  -4.3116197900  -1.0531415800  -0.3126104800
H  -6.1461957900  0.8644034200  -0.6052884800
H  -5.0935217900  2.1287494200  0.0608805100
H  -5.7185597900  0.8334574200  1.0997625200