33
charge=0, multiplicity=1, basis=def2-QZVPPD, AUX_BASIS_CORR=rimp2-def2-QZVPPD, SCF_ALGORITHM=GDM, xc_grid=000099000590, mem_total=60000, num_basis=1605, num_pairs=866541, num_threads=16
N  -1.3169117600  2.9977490300  -0.1777314500
C  -0.0032387600  2.6969010300  0.1157945500
C  0.1144672400  1.3623020300  0.4305485500
C  -1.2059237600  0.8074300300  0.3223595500
C  -1.7322157600  -0.4834619700  0.5198635500
C  -3.0909507600  -0.6790729700  0.3445795500
C  -3.9477537600  0.3812820300  -0.0258174500
C  -3.4532357600  1.6599000300  -0.2306774500
C  -2.0783407600  1.8590670300  -0.0560654500
H  -1.6630827600  3.9090610300  -0.4151744500
H  0.7579522400  3.4594440300  0.0800195500
H  -1.1107177600  -1.3171719700  0.8203975500
H  -5.0060967600  0.1817820300  -0.1266434500
H  -4.1141077600  2.4723540300  -0.5043174500
O  -3.6273967600  -1.9336769700  0.5811325500
C  -3.9513517600  -2.6238709700  -0.6222584500
H  -4.6888457600  -2.0735729700  -1.2105534500
H  -3.0575887600  -2.7805799700  -1.2314044500
H  -4.3669287600  -3.5848099700  -0.3300064500
C  1.3736932400  0.6244830300  0.7588775500
C  1.8766812400  -0.1907549700  -0.4410394500
N  3.0933042400  -0.9315769700  -0.1503174500
C  4.3098852400  -0.3170109700  -0.1427724500
C  5.4820302400  -1.1900409700  0.2582895500
H  2.1583222400  1.3240340300  1.0483045500
H  1.2062272400  -0.0499309700  1.6031785500
H  1.1140062400  -0.8985059700  -0.7658334500
H  2.0866382400  0.4857200300  -1.2677794500
H  3.0270412400  -1.8743519700  0.1869725500
O  4.4511352400  0.8604670300  -0.4443744500
H  5.8973422400  -0.8083399700  1.1895255500
H  5.2148382400  -2.2371279700  0.3893175500
H  6.2511232400  -1.1081179700  -0.5063944500