33
charge=0, multiplicity=1, basis=def2-QZVPPD, AUX_BASIS_CORR=rimp2-def2-QZVPPD, SCF_ALGORITHM=GDM, xc_grid=000099000590, mem_total=60000, num_basis=1605, num_pairs=871102, num_threads=16
N  1.0267452400  2.7756354200  -0.0313287000
C  -0.2621857600  2.4278314200  -0.3754577000
C  -0.3501777600  1.0678964200  -0.5673977000
C  0.9670442400  0.5428044200  -0.3281307000
C  1.5101732400  -0.7497115800  -0.3756987000
C  2.8600342400  -0.9242655800  -0.0948797000
C  3.6809042400  0.1778974200  0.2346403000
C  3.1594772400  1.4664134200  0.2839283000
C  1.8042482400  1.6389424200  0.0014273000
H  1.3506972400  3.7107864200  0.1325303000
H  -1.0276577600  3.1818324200  -0.4666057000
H  0.9132862400  -1.6157815800  -0.6299247000
H  4.7280302400  0.0356914200  0.4520363000
H  3.7990152400  2.3028614200  0.5346943000
O  3.3170882400  -2.2158395800  -0.1620117000
C  4.6912782400  -2.4279805800  0.1130063000
H  4.9477162400  -2.1241125800  1.1302533000
H  5.3284112400  -1.8947935800  -0.5959467000
H  4.8536272400  -3.4963825800  0.0069853000
C  -1.5776167600  0.2807924200  -0.9018597000
C  -2.1113397600  -0.4840685800  0.3205653000
N  -3.2742067600  -1.3030655800  0.0319563000
C  -4.5850867600  -0.9097095800  0.0557953000
C  -4.8756547600  0.4402764200  0.6829673000
H  -1.3614177600  -0.4380735800  -1.6969977000
H  -2.3594657600  0.9427104200  -1.2802247000
H  -2.3571407600  0.2219344200  1.1116583000
H  -1.3262147600  -1.1302305800  0.7149113000
H  -3.1296847600  -2.1810355800  -0.4421107000
O  -5.4747187600  -1.6282735800  -0.3765287000
H  -5.9425347600  0.6198864200  0.6016253000
H  -4.3341047600  1.2419214200  0.1816023000
H  -4.5885687600  0.4472104200  1.7345203000