33
charge=0, multiplicity=1, basis=def2-QZVPPD, AUX_BASIS_CORR=rimp2-def2-QZVPPD, SCF_ALGORITHM=GDM, xc_grid=000099000590, mem_total=60000, num_basis=1605, num_pairs=939966, num_threads=16
N  -2.6444591500  -2.2941456400  -0.2765038200
C  -1.4190291500  -2.8095996400  0.0776341800
C  -0.5366221500  -1.7833006400  0.3437151800
C  -1.2686141500  -0.5605556400  0.1452001800
C  -0.9264331500  0.8062643600  0.2692281800
C  -1.9018791500  1.7560603600  0.0005401800
C  -3.2118101500  1.3720583600  -0.3833388200
C  -3.5652581500  0.0430243600  -0.5063768200
C  -2.5816221500  -0.9195756400  -0.2390738200
H  -3.4611001500  -2.8352896400  -0.4932778200
H  -1.2631211500  -3.8753866400  0.1263541800
H  0.0726328500  1.0975693600  0.5534651800
H  -3.9285201500  2.1571113600  -0.5804258200
H  -4.5687111500  -0.2365006400  -0.8006498200
O  -1.7107951500  3.1057973600  0.0707971800
C  -0.3968501500  3.5384953600  0.4086231800
H  0.3423638500  3.1647893600  -0.2999618200
H  -0.1269961500  3.2151063600  1.4168851800
H  -0.4273111500  4.6233963600  0.3765131800
C  0.9007038500  -1.9529236400  0.7340411800
C  1.8729928500  -1.7633776400  -0.4424268200
N  1.8705818500  -0.4144796400  -0.9809938200
C  2.6238908500  0.6310463600  -0.5256848200
C  3.8176968500  0.2908363600  0.3449911800
H  1.0475538500  -2.9580176400  1.1385671800
H  1.1631418500  -1.2474256400  1.5272471800
H  1.6002478500  -2.4502696400  -1.2448928200
H  2.8867188500  -2.0137466400  -0.1345988200
H  1.0392608500  -0.1210736400  -1.4735998200
O  2.3619128500  1.7890623600  -0.8312788200
H  4.4961478500  -0.3911826400  -0.1669008200
H  3.5061288500  -0.1804656400  1.2773061800
H  4.3371568500  1.2166983600  0.5688761800