82
charge=1, multiplicity=1, basis=def2-QZVPP, AUX_BASIS_CORR=rimp2-def2-QZVPP, mem_total=700000, SCF_ALGORITHM=GDM, xc_grid=000099000590, num_basis=3855, num_pairs=2767020, num_threads=128
C  -6.0064856316  1.3275249401  2.5808846600
C  -5.2422400093  0.3255879923  2.0736960105
C  -4.9341114552  2.0326534068  0.7999607240
N  -4.5789683581  0.7813969219  0.9645867308
C  -5.3767253602  -2.6624408795  -3.1186877993
C  -4.8576439933  -2.4460879812  -1.8823510010
C  -4.3860242936  -0.7041263497  -3.0568838523
N  -4.2417746985  -1.2197240176  -1.8599845824
N  -2.2940303916  3.2092441191  -2.7292410051
C  1.6222180004  3.7916899804  -0.4294590198
N  1.6352289438  2.4734312584  -0.0637912807
C  2.8757711599  4.3072109333  -0.3037724264
C  2.8694281655  2.1951186536  0.2790224265
C  0.3583234151  2.0016298336  4.2683703500
C  0.5038659976  2.3238250158  2.9566500153
C  -0.4628825115  0.3996523467  3.0057622758
N  -0.0127351968  1.3186220033  2.1830559719
C  -2.7589479327  -2.6908911626  1.6016424003
O  -1.5513685172  -2.4188029305  1.7349565944
O  -3.5924326523  -2.0273632220  0.9206092891
Zn  -3.2476938282  -0.2874366752  -0.2519245196
Zn  -0.0458386780  1.1189516900  0.0756090842
C  -2.1068483338  2.3055772843  -1.7234096113
O  -3.0409304708  1.4914869368  -1.5017490037
O  -1.0087763256  2.3842091763  -1.1057765065
O  -1.3249924374  -0.3619801791  -0.0158489566
C  5.9900087749  0.7392966947  -1.0204568963
C  5.3734541043  0.3367801926  -2.1934500336
C  5.7389842184  0.1112311169  0.1889082363
C  4.4224424490  -0.6647583687  -2.1382346871
C  4.8164799600  -0.9186624839  0.2310828073
C  4.1335103834  -1.2712473286  -0.9257975133
O  1.7844696267  -2.1983435709  1.2836313422
O  1.4946656445  -0.3405303808  -0.4282547665
C  1.5685463756  -3.5281313197  1.7815556975
H  1.8658361099  -3.5104351605  2.8263054515
H  0.5150300535  -3.7835603180  1.7078800012
H  2.1810275687  -4.2571748146  1.2511247755
O  3.1425986457  -2.2156550207  -0.8851772162
P  1.7122468044  -1.7936290914  -0.2327623500
O  0.7377188898  -2.8320972391  -0.8883206970
C  0.0343380413  -2.5753155222  -2.1114722698
H  0.7301611682  -2.4154949441  -2.9354249159
H  -0.5528827858  -3.4661561686  -2.3127523265
H  -0.6239659280  -1.7183024045  -1.9905396769
N  6.8883320144  1.8827949186  -1.0528667091
O  6.9594839676  2.5490975422  -0.0406285574
O  7.4762977663  2.1088719372  -2.0751230749
C  -3.2827729973  -3.9433130093  2.2877759953
H  -4.3153980230  -3.8248850005  2.6124468510
H  -3.2640384207  -4.7751508315  1.5800284496
H  -2.6629973855  -4.2218780044  3.1370810425
C  -1.3562900008  4.2473379974  -3.0908230017
H  -0.3600103562  3.8398513860  -3.2560029541
H  -1.6869405759  4.7078898235  -4.0192824133
H  -1.2821173311  5.0329622318  -2.3347095818
H  -5.1325703491  -0.6878358811  2.4165806368
H  -4.5947235063  2.6805446554  0.0102882040
H  -4.8851226684  -3.0745515534  -1.0098018626
H  -4.0175642905  0.2584015549  -3.3673305295
H  -3.1988942928  3.2145226032  -3.1635523147
H  3.2700976701  5.2887700940  -0.4988344871
H  3.2285037914  1.2413233043  0.6222394290
H  0.9353613863  3.2113682955  2.5265867775
H  -0.9206078738  -0.5392628365  2.7290502083
H  5.6004454519  0.8230525143  -3.1314391869
H  6.2542473556  0.4173689798  1.0887638376
H  3.8915822031  -0.9637013264  -3.0314126828
H  4.6132650780  -1.4299716662  1.1627401680
N  -5.0650980246  -1.5463380167  -3.8483087160
H  -5.3095221560  -1.3803123250  -4.8090976770
N  -0.2534578208  0.7771664714  4.2745667820
H  -0.5023154068  0.2421201137  5.0885550841
N  3.6520623284  3.2755989222  0.1493014483
H  4.6437425057  3.3049003529  0.3309368742
N  -5.7959120467  2.4012019155  1.7579630060
H  -6.2196321088  3.3084432399  1.8481893585
H  -5.9285084386  -3.4899655337  -3.5278943386
H  0.6251745984  2.5256856973  5.1689167135
H  0.7218995188  4.2747129405  -0.7654551018
H  -6.6667363350  1.3650192823  3.4288989708
H  -1.1836983792  -1.1227675126  0.5837201948