89
charge=-2, multiplicity=1, basis=def2-QZVPP, AUX_BASIS_CORR=rimp2-def2-QZVPP, mem_total=700000, SCF_ALGORITHM=GDM, xc_grid=000099000590, num_basis=4112, num_pairs=3000822, num_threads=128
H  99.2923279986  151.2130100002  146.9388320038
C  98.2733047340  151.0852315750  146.5226810132
O  97.6690977698  152.0215214936  146.0420250794
N  97.8324941534  149.8253715622  146.6198048391
H  96.9181297596  149.5767592605  146.2794835482
H  98.3569459325  149.0674116744  147.0294272855
H  103.1525150221  141.1208389833  144.2782180163
C  102.7542975057  141.9865187297  143.6853857865
O  103.4666563771  142.8934521066  143.3070582008
N  101.4345892402  141.8572916506  143.4642360331
H  100.9898149691  141.0934310949  143.9676123719
C  100.5468375760  142.8905671933  142.9827281225
H  100.3001356387  143.6045555733  143.7771334607
H  100.9801459742  143.4946560168  142.1725619781
C  99.2708736686  142.2817703723  142.4063123632
O  99.2325094315  141.1799671275  141.8983779679
N  98.2162330745  143.1349326617  142.4217804482
H  98.2262030431  143.8658121491  143.1273025011
C  96.9656047423  142.8124667421  141.7783988677
H  96.4716700669  143.7611445499  141.5451829973
H  97.1764950080  142.3310280060  140.8021730042
C  95.9379352514  142.0037156729  142.6166895539
O  95.1766014888  141.2196151532  142.0889729274
N  95.9019198847  142.3255528108  143.9351067590
H  96.5633635368  143.0078401798  144.3187859111
C  94.9935852101  141.7933853586  144.9322090585
H  94.9819556216  142.5426177052  145.7311233637
H  93.9384809897  141.7037380110  144.6064250279
C  95.4483307207  140.4785918993  145.5957973984
O  94.6861651723  139.7922209439  146.2551341314
N  96.7665064905  140.2152962723  145.4610089470
H  97.2528942785  140.8146671913  144.8116335844
C  97.4144077967  138.9565761354  145.7595298512
H  96.8300833829  138.1431605732  145.3140023155
C  98.8044038963  138.9347428509  145.1149881371
H  98.7074161443  139.1894315375  144.0560768410
H  99.1684017309  137.9090983997  145.1626530249
S  100.0705535233  139.9854362462  145.9108243258
C  97.5715894364  138.5531908273  147.2288282813
O  97.8158625265  137.3876711696  147.4908441349
N  97.4279278833  139.5021308794  148.1684540665
H  97.2715106977  140.4490761915  147.8675104478
C  97.5158589768  139.2545679072  149.5897897938
H  97.3010765466  140.2038890259  150.0741302772
C  96.5111618319  138.2069863142  150.0557583331
H  96.8280100645  137.2078535046  149.7558174262
H  96.4524803952  138.2281445113  151.1461609398
O  95.2010849536  138.4627986119  149.5755271868
H  95.2309583939  138.5348006545  148.6098907924
H  98.5151229500  138.9599760560  149.9336390353
H  98.0135740045  146.2882129799  151.1830500118
C  97.8047907704  145.6290328910  152.0398074376
O  97.5810008074  146.0352626836  153.1616149529
N  97.8596256017  144.3366269344  151.6743997526
H  97.9535952704  144.1372945015  150.6892994318
C  97.4906775761  143.2675164754  152.5578357598
H  97.9790820534  142.3471191040  152.2404846686
H  97.8069220006  143.5031800031  153.5719330164
H  96.4103054878  143.0929374392  152.5736352883
H  92.2750851345  143.8974075467  151.9501861649
C  92.5996472445  143.2986677655  152.8095046726
H  93.6773381123  143.4643574623  152.9317112468
H  92.1042520480  143.7065229716  153.6934609312
O  92.2503135652  141.9441587970  152.7060935571
H  92.7138800760  141.5627988191  151.9554525195
H  93.5871047900  143.2245895264  148.2740061574
C  93.4946450829  142.8128119157  149.2778366615
H  93.6925716643  143.6482480568  149.9491204706
H  92.5000909920  142.4088439797  149.4367020102
C  94.5023370770  141.7374601964  149.4982718184
O  93.9709456067  140.6720101891  150.0639772649
O  95.6802232405  141.8241687759  149.2149432919
H  93.2113640763  146.0909439748  148.9204879801
C  94.0696979446  145.9605977810  148.2596566542
S  95.5552031819  145.5786989223  149.1135311957
C  94.0366822913  146.0055658515  146.9223760920
S  95.4575488281  145.6743770897  145.9362971725
H  93.1451159301  146.1876010285  146.3280839820
Cu  99.2215151722  142.0163477285  146.0275715637
S  98.2209970607  143.9197868924  145.7419192146
Mo  97.2489953953  145.4081851903  147.4345871685
O  100.1359167078  141.2881843750  149.3237261982
O  98.1649552091  146.7973428873  147.5265615496
C  101.0823401171  141.3598351661  148.6602220639
O  102.0659922735  141.4558220574  148.0635603967
H  94.5506435233  139.8587493015  149.9930941803
O  97.7574734098  143.6529603242  148.7017628334
H  98.2774342696  143.0826792837  148.1053718630
H  96.9277809531  143.1664870954  148.8924248773