58
charge=2, multiplicity=1, basis=def2-QZVPP, AUX_BASIS_CORR=rimp2-def2-QZVPP, mem_total=240000, SCF_ALGORITHM=GDM, xc_grid=000099000590, num_basis=2744, num_pairs=1661572, num_threads=64
N  -0.8939410319  -3.7647912451  -3.3523627513
H  -0.6742129151  -3.6370432389  -4.3266963230
C  -0.1765819724  -3.2716100057  -2.3008780132
N  -1.9396321607  -4.3986584641  -1.5536535791
C  -0.8410951864  -3.6698040252  -1.1849396888
H  -0.5991831875  -3.4689041120  -0.1550182778
C  -1.9457699615  -4.4356887411  -2.8662486798
H  -2.6792109888  -4.9260119002  -3.4840765838
N  -1.3622018633  -7.0467525102  2.9560065926
H  -1.3732111230  -7.4123779351  3.8943146452
C  -0.2870050191  -7.0403649966  2.1137589821
N  -2.0375861026  -6.0972404504  1.1188725729
C  -0.7215104204  -6.4463485641  0.9716369343
H  -0.1698389970  -6.2539639329  0.0671696116
C  -2.3960500356  -6.4758783612  2.3240042878
H  -3.3761235002  -6.3642579769  2.7581848994
N  -5.6503091615  -2.6604706562  2.0827708051
H  -5.8753492517  -2.1709122213  2.9331504516
C  -6.3951850265  -2.6656609891  0.9371120085
N  -4.5362167526  -3.8693835969  0.6433688628
C  -5.6840488505  -3.4168782542  0.0515677031
H  -5.9223813997  -3.6362830483  -0.9745692118
C  -4.5440274572  -3.3897195373  1.8625542843
H  -3.7757515857  -3.5317684829  2.6055799644
N  -7.6848446665  -9.7482058701  1.1789562077
H  -7.5707407441  -10.5601117423  1.7635364427
C  -8.8476450096  -9.0597280110  0.9858670000
N  -7.2183244032  -8.1387452332  -0.2039606967
C  -8.5443734045  -8.0591531351  0.1189988560
H  -9.1947300242  -7.3035650556  -0.2877554215
C  -6.7264760455  -9.1673173092  0.4469694959
H  -5.7083024236  -9.5170360492  0.4057918219
N  -4.8016796750  -10.2116146873  -4.0360563587
H  -4.0862721604  -10.7268073731  -4.5222135434
C  -6.1001800043  -10.6037459642  -3.8736099932
N  -5.7765370822  -8.6254998496  -2.9006239271
C  -6.6938820231  -9.6064909524  -3.1660587169
H  -7.7171221929  -9.5435193499  -2.8345438408
C  -4.6481270590  -9.0201653233  -3.4369782664
H  -3.7129273229  -8.4856286127  -3.4062905839
N  -8.5619899826  -4.8890294147  -4.1212257515
H  -8.8923781178  -4.6849004918  -5.0506190206
C  -8.8947239736  -4.2070640360  -2.9855089878
N  -7.5215027449  -5.8859615764  -2.4925431496
C  -8.2433393877  -4.8422924526  -1.9762807808
H  -8.2530495375  -4.6127408388  -0.9238434577
C  -7.7362429639  -5.8894997589  -3.7871866633
H  -7.3199219826  -6.5876254502  -4.4949325803
Cu  -6.1876203393  -7.0288254337  -1.5011671639
Cu  -3.2119329834  -5.3415108764  -0.3213330959
O  -4.5583482935  -6.7485175594  -0.5073747107
O  -4.5842361204  -5.9349962348  -1.5761691597
H  0.7166816902  -2.6857594864  -2.4285219811
H  0.6718092110  -7.4429694199  2.3893484412
H  -7.3222039370  -2.1273238269  0.8457742853
H  -9.7718139149  -9.3329926049  1.4641687261
H  -6.4825456209  -11.5288353264  -4.2682514625
H  -9.5583554713  -3.3602326082  -2.9881618577