116
charge=-1, multiplicity=1, basis=def2-QZVPP, AUX_BASIS_CORR=rimp2-def2-QZVPP, mem_total=700000, SCF_ALGORITHM=GDM, xc_grid=000099000590, num_basis=5135, num_pairs=3948340, num_threads=128
C  6.4974600019  0.8800780013  4.9144409993
C  6.1150789158  -0.5678980737  5.0976999809
O  6.4519560919  -1.1998214217  6.0799010160
N  5.3858690548  -1.0669440867  4.0825083172
C  4.8594829988  -2.4034190012  4.0546980021
C  3.3697437733  -2.4336018894  3.7899325828
C  3.0540520468  -2.0103733069  2.3780420262
O  3.7944214326  -1.2579110305  1.7554629495
O  1.9744007749  -2.5365623180  1.9243209115
C  -5.1872269961  -2.4432620125  -0.8895579990
C  -3.9657387607  -1.7887616469  -0.2665242012
S  -2.7823101896  -1.3653715630  -1.5836497375
C  8.5010680020  -0.4497049989  -2.9970190009
C  7.3923837298  -0.9069713672  -2.1060756723
C  7.1843928569  -0.5656148789  -0.7997596236
C  6.3235515970  -1.7987957087  -2.4525305945
N  6.0708090573  -1.1946679121  -0.3126325313
C  5.5183895415  -1.9491212050  -1.3049808511
C  5.9569585648  -2.4741712481  -3.6220365112
C  4.3697665559  -2.7362331055  -1.2936411863
C  4.8179079645  -3.2536542441  -3.6167019825
C  4.0285249955  -3.3811689979  -2.4612249978
C  2.4621909539  5.5934768440  -2.7188780565
C  1.9962035819  5.4373571004  -1.2793708211
N  1.0868796529  4.3183360877  -1.1564404584
C  -0.2068857039  4.3714166841  -0.8578387044
N  -0.6676533889  5.3970775771  -0.0998012903
N  -1.0454091759  3.4947280994  -1.3410208685
C  -2.6024530027  2.3097910029  4.5509790014
C  -3.7498805599  1.8392218676  3.6844873919
O  -4.6933911294  2.8899950845  3.6429255508
C  -3.2591905264  1.4474748721  2.3133422927
S  -2.0251067156  0.2210901365  2.2563435794
C  -3.7840822981  1.9739039051  1.1954363663
S  -3.2044003732  1.4912945716  -0.3628662081
C  -4.9668178718  2.8972490114  1.2585636896
C  -5.6351050493  2.7604903210  2.6141567370
C  1.5403680529  2.1050701540  -4.1469269486
C  2.2390318882  1.3070670071  -3.0647166276
O  3.3749869463  2.0550739012  -2.6759068613
C  1.3282043617  1.0432135923  -1.8857419705
S  -0.3106419499  0.5316950046  -2.2432798898
C  1.7464778752  1.2624359885  -0.6227751545
S  0.6756045597  1.1384064184  0.7476961841
C  3.1736835764  1.6314299796  -0.3205181626
C  4.0260338791  1.4808354043  -1.5669224534
W  -1.3168602726  -0.1432495431  0.0176295005
O  1.2901391455  -1.9844232966  -0.3506395776
C  -0.8404336334  -1.7904798476  0.8859435742
C  -0.1521354584  -1.9428725664  -0.3238597953
C  -5.3233465237  -3.9498734974  -0.5587354740
O  -6.2135613982  -4.3855802498  0.1417616818
N  -4.3989218976  -4.7497589278  -1.1409579530
N  -6.4204505912  -1.7673100730  -0.5607749748
C  -7.5047323547  -1.8552946012  -1.3708130722
O  -7.4775011699  -2.3856385381  -2.4621320563
C  -4.4431690040  -6.1970909907  -1.0284909989
C  -8.7846720018  -1.2197339996  -0.8506899965
H  6.1285471329  1.4598441080  5.7599990702
H  2.8460785795  -1.7700088975  4.4848301248
H  2.9736699289  -3.4352496465  3.9625641477
H  5.0766220434  -2.8586915242  5.0198031425
H  5.1304004789  -0.4808659460  3.3064211055
H  8.1193640340  0.0713028077  -3.8777501166
H  9.1032780176  -1.2877075473  -3.3548897275
H  7.7667165313  0.0888715208  -0.1695428024
H  5.6392897494  -1.0582928489  0.5871488465
H  6.5524977371  -2.3806097320  -4.5223354778
H  4.5199759058  -3.7712163454  -4.5194472216
H  3.7568161390  -2.8323147166  -0.4117530305
H  3.1291101614  -3.9812352059  -2.4886579594
H  2.9830437460  4.6974135744  -3.0544858249
H  1.6183114607  5.7726371154  -3.3845286359
H  2.8522630307  5.2827280538  -0.6188979820
H  1.4917631588  6.3443059934  -0.9465251756
H  1.4194533207  3.4158713404  -1.4847605436
H  -1.6440485180  5.3625730097  0.1425471874
H  -0.0735979019  5.7024087582  0.6523838494
H  -1.8932941472  3.2173232644  -0.8371823909
H  -0.7169053383  2.6963949666  -1.9020876791
H  -3.4830162498  -2.4308193532  0.4743013739
H  -4.2726516481  -0.8801349819  0.2560008865
H  -2.0836617607  3.1429053634  4.0754876468
H  -1.8815821032  1.5088221161  4.6991156993
H  -4.2109251735  0.9544167897  4.1563207078
H  -5.6729353766  2.6473576608  0.4620389456
H  -6.1540449286  1.7912616153  2.6681484124
H  1.1225862424  3.0374898567  -3.7631904853
H  0.7221135218  1.5321923245  -4.5768937446
H  2.5641168927  0.3447976355  -3.4933452722
H  3.5496368205  0.9796549720  0.4708951472
H  4.2348137410  0.4197307489  -1.7541862525
H  1.7317017201  -2.2251480264  0.9543900547
H  -2.9617468122  2.6351536423  5.5291568509
H  -4.6662998341  3.9379937601  1.0890407742
H  -6.3842641497  3.5408968889  2.7698278217
H  2.2428946326  2.3524148498  -4.9445246047
H  3.1498926395  6.4354618038  -2.8058690018
H  4.9888099518  1.9847262765  -1.4595976074
H  3.2265290781  2.6541726796  0.0752561527
H  7.5834104020  0.9719872528  4.9159534123
H  6.1149552149  1.3306775797  3.9993632644
H  9.1711476645  0.2351532220  -2.4770772527
H  5.3825794274  -3.0024556762  3.3025840742
H  -5.1032024212  -2.3737982949  -1.9768013691
H  1.6211409361  -1.1729369736  -0.7575420064
H  -0.8573517003  -2.2848380725  1.8501460349
H  -9.5146663523  -2.0052031344  -0.6561020871
H  -8.6536289060  -0.6390759975  0.0624331232
H  -9.1954417134  -0.5695514713  -1.6207984979
H  -0.5404803756  -2.5458267200  -1.1417086646
H  -3.6486451820  -4.3152281927  -1.6555346495
H  -6.5520527409  -1.4781935774  0.3931999782
H  -5.4144812417  -6.5801883164  -1.3404430788
H  -3.6777024564  -6.6168950197  -1.6768193088
H  -4.2565764128  -6.5351659630  -0.0079501344