82
charge=0, multiplicity=1, basis=def2-QZVPP, AUX_BASIS_CORR=rimp2-def2-QZVPP, mem_total=700000, SCF_ALGORITHM=GDM, xc_grid=000099000590, num_basis=3680, num_pairs=2640907, num_threads=128
C  -5.1838139720  0.6938379866  -3.2927859722
C  -4.0214474566  -0.0055021422  -2.6770006901
N  -2.7739034554  -0.0766960697  -3.2506894509
C  -3.8902548898  -0.6658490841  -1.4939739414
C  -1.9550350534  -0.7463697341  -2.4209026591
N  -2.6063765122  -1.1195643559  -1.3506968825
C  1.0309050063  -4.8734140064  -1.1830760061
C  0.8339477790  -3.5109666376  -0.5576100333
O  -0.3310877034  -3.0790526719  -0.5009454743
O  1.8661654250  -2.9050935737  -0.1698567196
C  -2.9502477337  2.3444486752  0.2484854913
O  -2.0679551966  1.7383328885  -0.5313293489
O  -2.9212147545  2.3181674735  1.4524937158
C  0.8543930007  1.6606670216  -2.8692160211
C  1.4612765047  0.8134520548  -1.7937240153
O  1.9900807157  1.3357061923  -0.7990741117
O  1.3637626284  -0.4447337971  -1.9215024113
C  -5.0891550358  -3.2962560068  1.9790580023
C  -3.8403082799  -2.7041564293  1.3975746337
O  -3.0206840158  -3.4808345374  0.8422193665
O  -3.6398150070  -1.4719103059  1.4645345307
C  7.5282520270  -1.9740170075  -0.7019540029
C  6.2262316917  -1.3203914958  -0.4481990843
N  6.0770247389  0.0349909837  -0.2801423461
C  4.9673600661  -1.8243020124  -0.3503150995
C  4.7742051025  0.3041525197  -0.1001572498
N  4.0843899197  -0.8050330307  -0.1360683383
Zn  2.0444438337  -0.9327245265  -0.1111246155
Zn  -1.7324502100  -1.9511059186  0.3900152984
C  -0.5921560647  -0.6498339657  2.9642981662
C  0.1642780265  -0.4269116122  4.2569849859
N  -1.0509630580  -2.0266702091  2.7228127813
O  1.4563709070  -0.4878901559  1.7438801353
O  -0.4363513625  -0.2914697381  0.6288307002
H  7.9913767529  -1.6218624941  -1.6256277682
H  8.2392319484  -1.8101524423  0.1100910644
H  4.6404193526  -2.8477460884  -0.4259884418
H  6.8160373691  0.7162846528  -0.2980521585
H  4.3668993478  1.2919713767  0.0351779790
H  -6.0499875915  0.6070484041  -2.6400766958
H  -4.9885738029  1.7575286698  -3.4421033608
H  -5.4595590311  0.2662185487  -4.2586127715
H  -4.6323647744  -0.8162384004  -0.7290212930
H  -0.9069342031  -0.9205947472  -2.6121132876
H  0.2227590624  -5.5475867321  -0.9067423015
H  1.9887718927  -5.3106651848  -0.9112238936
H  -0.1635911394  1.9219756182  -2.5699332764
H  0.8114945639  1.1371480599  -3.8225623943
H  -5.6248226405  -2.5856554152  2.6039617669
H  -5.7528502512  -3.6123460202  1.1720294595
H  0.5012634668  0.6077353837  4.3124749968
H  1.0420239998  -1.0697627308  4.3271693530
H  -1.8429776361  -2.2501696538  3.3109088821
H  -0.3131628886  -2.6868240138  2.9442245916
H  1.0049626401  -4.7672311170  -2.2694844780
H  -4.8591142499  -4.1902593023  2.5578185413
H  7.3883819874  -3.0484419836  -0.7982932819
H  1.3958264889  2.5967993747  -2.9917852720
H  -0.7713232157  2.6323628025  2.1395266237
H  -1.4691238939  1.1657555753  -0.0107204801
H  -1.4764832771  -0.0100499921  2.9278326793
C  0.2166623733  -0.3949870602  1.7097433925
H  -0.4787568081  -0.6248051462  5.1158152044
C  -4.0187450228  3.0416180088  -0.5508980076
H  -3.6020622402  3.5370005266  -1.4262577146
H  -4.5373129980  3.7676442160  0.0685855889
H  -4.7418563477  2.3019219316  -0.8968322167
N  0.2376064816  2.5947413408  2.0637358534
H  0.4487264136  2.2774160227  1.1250870454
C  0.8218402935  3.8958436602  2.2549187465
H  0.6871290576  4.1949446143  3.3028480920
C  2.3247506344  3.8128613477  1.9781957671
C  0.2177846511  5.0028487278  1.3903283865
H  2.4977798076  3.5160986713  0.9423092725
H  2.8387809990  4.7571955089  2.1582405236
H  2.7639895254  3.0530732412  2.6232277513
O  -0.4158140606  4.7653840576  0.3938205040
C  0.4334892957  6.4184641105  1.8762017303
H  1.3939640949  6.5492857086  2.3742199572
H  0.3450106151  7.1323555093  1.0599955077
H  -0.3382733320  6.6536989058  2.6136259979
H  -2.5005253322  0.3325827280  -4.1268655403