82
charge=0, multiplicity=1, basis=def2-QZVPP, AUX_BASIS_CORR=rimp2-def2-QZVPP, mem_total=700000, SCF_ALGORITHM=GDM, xc_grid=000099000590, num_basis=3680, num_pairs=2736942, num_threads=128
C  5.5637789829  -1.9709839355  2.7943259865
C  4.3046044433  -1.9382145602  1.9989806262
N  3.0890114148  -2.3812989910  2.4659825264
C  4.0398304097  -1.4927740593  0.7384867194
C  2.1635263974  -2.1864038748  1.5079288305
N  2.7106287442  -1.6431419350  0.4531512163
C  -0.9330930020  -4.0930740046  -2.4359049970
C  -0.7303475521  -2.8365239735  -1.6433895067
O  0.4337615072  -2.6424305550  -1.2346543777
O  -1.7128546454  -2.0763124424  -1.4723151944
C  3.4423121508  1.4529519012  1.7665187961
O  2.2503067794  1.2533144784  1.7315114556
O  4.2211499333  1.6189095384  0.7217462902
C  -0.4662090002  -1.4006809897  3.7367349930
C  -1.2099812966  -1.0108794722  2.4837542028
O  -1.7758041884  0.0878488193  2.4101926014
O  -1.1599118823  -1.8361847561  1.5241948697
C  4.8049260012  -0.2313130093  -3.4621350124
C  3.6439191801  -0.1676733009  -2.4950840796
O  2.8437342343  -1.1392714923  -2.5568663281
O  3.5163997081  0.7859436935  -1.7047814966
C  -7.3847539996  -2.3186540010  0.0300660037
C  -6.0705414475  -1.6678861958  0.2912618756
N  -5.8749915698  -0.7734664539  1.3161904866
C  -4.8501113600  -1.7657895858  -0.3111074424
C  -4.5899028407  -0.3785504288  1.3047416538
N  -3.9460939100  -0.9616426506  0.3290543545
Zn  -1.8406355074  -0.7230043042  0.0056330545
Zn  1.4334577588  -0.9432987593  -1.1774452801
C  0.0792160579  1.5969374766  -2.2352751265
C  -0.6466226542  2.5369571169  -3.1950190070
N  0.2011257025  0.2351850444  -2.7480249827
O  -1.8428577408  1.0337107999  -0.8990988801
O  0.2901468215  0.2495346787  -0.0771443155
H  -7.7199527517  -2.9160006796  0.8798097738
H  -8.1648285556  -1.5897836176  -0.1968297815
H  -4.5643407384  -2.3660872119  -1.1585715120
H  -6.5713138320  -0.4717956127  1.9750924264
H  -4.1570443734  0.3001010242  2.0205025194
H  6.3637366247  -1.4943443530  2.2315942658
H  5.4642268991  -1.4382484274  3.7420268268
H  5.8845165314  -2.9899379935  3.0198690924
H  4.7335447310  -1.0647131387  0.0354686876
H  1.1193032888  -2.4426253469  1.6081343690
H  -0.3504037399  -4.0393422627  -3.3566851544
H  -1.9763807197  -4.2647760724  -2.6900345475
H  0.5251638940  -0.9407334087  3.7041497408
H  -0.3471841568  -2.4793727966  3.8235386990
H  4.4425018682  -0.3892252342  -4.4775266771
H  5.4132196393  0.6696520498  -3.4340621754
H  -0.7268427947  3.5430110497  -2.7845091810
H  -1.6572191990  2.1790301068  -3.3950887369
H  0.6793400085  0.2451744520  -3.6407770231
H  -0.7271009351  -0.1412980669  -2.9174082521
H  -0.5541409555  -4.9501653131  -1.8797502667
H  5.4344388319  -1.0886697977  -3.2195798382
H  -7.3035742294  -2.9855732290  -0.8254475536
H  -0.9610411217  -1.0196895791  4.6288998032
H  3.8050950341  1.3812638588  -0.1468966590
H  0.7510417840  0.6446312274  0.6787268640
H  1.0938568166  1.9682505388  -2.0665581718
C  -0.6776680471  1.5675878696  -0.9043865733
H  -0.1110765902  2.6022147050  -4.1439672477
C  4.2035570141  1.5598179416  3.0600920273
H  3.5550500850  1.3320954837  3.9010708292
H  4.5997474421  2.5688248105  3.1851732773
H  5.0576222163  0.8839072893  3.0596102325
N  -0.4727965539  2.6947694832  -0.1584371245
H  0.3902529375  3.1950511015  -0.2872646702
C  -1.3542668673  3.1543153586  0.8700490088
H  -2.1371520734  2.4048092117  0.9968318922
C  -0.6402829540  3.3170983396  2.2155038390
C  -2.0239468588  4.4642214448  0.4717239656
H  0.1714607543  4.0442732322  2.1490016090
H  -1.3247382469  3.6488615000  2.9961192667
H  -0.2254280619  2.3621279679  2.5263155313
O  -1.6897038285  5.0921024983  -0.4990711939
C  -3.1155769257  4.9566181410  1.3958311059
H  -2.6833625912  5.5998749317  2.1654301933
H  -3.8396644209  5.5496919308  0.8406398411
H  -3.6267588390  4.1403114535  1.9058278177
H  2.9117843211  -2.7844723386  3.3693982239