58
charge=2, multiplicity=3, basis=def2-QZVPP, AUX_BASIS_CORR=rimp2-def2-QZVPP, mem_total=240000, SCF_ALGORITHM=GDM, xc_grid=000099000590, num_basis=2744, num_pairs=1595862, num_threads=64
N  0.0552040458  -4.4956647369  -2.5842394312
H  0.7461216684  -4.9757166181  -3.1365471773
C  -0.0655279878  -3.1430109975  -2.4562200057
N  -1.6309003637  -4.1549233717  -1.2459922343
C  -1.1207016926  -2.9436371398  -1.6254840772
H  -1.5330634093  -2.0091308954  -1.2851289148
C  -0.9005801666  -5.0702772196  -1.8402506439
H  -1.0192030487  -6.1372346582  -1.7487594960
N  -1.4179842679  -7.6437919867  2.5291489042
H  -1.4990129978  -8.4613447982  3.1103674642
C  -0.2497029898  -7.0774080094  2.1063730065
N  -1.9742418132  -5.8876760796  1.3642772069
C  -0.6096711509  -5.9850089416  1.3879503918
H  0.0320557186  -5.2653594753  0.9082697510
C  -2.4316705796  -6.8967206745  2.0637542945
H  -3.4694241312  -7.1163096929  2.2544846672
N  -6.0418254961  -2.7738240879  2.2265010164
H  -6.4725033215  -2.4400296873  3.0731603971
C  -6.5381410126  -2.6317879921  0.9628080022
N  -4.5747544246  -3.6700969997  0.8889515270
C  -5.6149627324  -3.1923799773  0.1390991368
H  -5.6335159343  -3.2646679769  -0.9352185796
C  -4.8611592658  -3.4015478004  2.1421963214
H  -4.2484182924  -3.6327951693  2.9982177539
N  -7.7187600409  -9.8186579262  1.2616970645
H  -7.5997855530  -10.6495376472  1.8178739231
C  -8.8699300058  -9.0950720037  1.1434090036
N  -7.2706932908  -8.1785613881  -0.1000520864
C  -8.5770446036  -8.0761773383  0.2940580719
H  -9.2260366941  -7.2906846931  -0.0547519991
C  -6.7817803499  -9.2407021241  0.4974138731
H  -5.7804088717  -9.6250267237  0.3921213347
N  -4.9419506430  -10.0815327849  -4.3750056252
H  -4.2973255164  -10.4528678641  -5.0535256657
C  -6.0479710025  -10.7182390000  -3.8902760034
N  -5.8723580986  -8.7012717471  -2.9686611282
C  -6.6186974264  -9.8485166624  -3.0191079599
H  -7.5179888042  -9.9830618407  -2.4415631714
C  -4.8714921535  -8.8724102220  -3.7981738072
H  -4.0896076777  -8.1606456503  -4.0066687223
N  -8.5594815372  -4.7605636767  -4.1747651599
H  -8.9070399804  -4.5447549622  -5.0951123385
C  -8.9112979991  -4.1278000035  -3.0177220010
N  -7.4430555896  -5.7435404710  -2.5832055931
C  -8.2092124934  -4.7495239610  -2.0340647614
H  -8.2086247253  -4.5426661514  -0.9770049618
C  -7.6800526255  -5.7247860131  -3.8752481389
H  -7.2488471141  -6.3862202594  -4.6087491879
Cu  -6.4273663946  -7.2025171004  -1.6533026012
Cu  -2.9150224162  -4.4723062948  0.2428290153
O  -4.5822644651  -6.9591029824  -0.7251422397
O  -3.9731852748  -6.3479565205  -1.5761563258
H  0.5890446808  -2.4510798582  -2.9566536680
H  0.7150686459  -7.4798094980  2.3617969897
H  -7.4701501755  -2.1336192925  0.7605492920
H  -9.7767609704  -9.3563867782  1.6601673676
H  -6.3330560480  -11.7070814299  -4.2045242797
H  -9.6136702038  -3.3131830133  -2.9917753481