116
charge=-1, multiplicity=1, basis=def2-QZVPP, AUX_BASIS_CORR=rimp2-def2-QZVPP, mem_total=700000, SCF_ALGORITHM=GDM, xc_grid=000099000590, num_basis=5135, num_pairs=3890361, num_threads=128
C  6.3907270014  0.1320949976  4.9603910011
C  5.9644605500  -1.3182368775  4.9387138074
O  6.3131125604  -2.0986422625  5.8066891731
N  5.1941648269  -1.6305515482  3.8886761451
C  4.6756910021  -2.9420479991  3.6143590007
C  3.2437149900  -2.8843589758  3.1113354642
C  3.0808265459  -2.1483530216  1.7794936246
O  3.9237360648  -1.2679917384  1.5019806936
O  2.1060456475  -2.4957325775  1.0808730855
C  -5.3226969917  -1.9759800063  -1.3336350008
C  -4.2430892604  -1.6307829176  -0.2953499802
S  -2.5595083001  -1.7800996156  -0.9577256023
C  8.4317429993  -0.0644590018  -3.0502019980
C  7.2867855923  -0.5983545939  -2.2507126887
C  7.0371386577  -0.4006686143  -0.9190788806
C  6.2121602842  -1.4170323826  -2.7300547874
N  5.8885627102  -1.0374802116  -0.5463876341
C  5.3571856802  -1.6588027818  -1.6341223498
C  5.8764774551  -1.9636946425  -3.9748180477
C  4.1776964509  -2.3935361068  -1.7440037864
C  4.7221693593  -2.7114316500  -4.0857688877
C  3.8795539995  -2.9204470008  -2.9787730034
C  2.5501550440  6.0324551199  -1.9100419396
C  2.4374198406  5.4985411661  -0.4904496271
N  1.4260731645  4.4649979664  -0.3997580109
C  0.2286480012  4.5653559868  0.1555901700
N  0.0126239912  5.4798896478  1.1283113993
N  -0.7701005608  3.8327183501  -0.2774765918
C  -2.6650889988  1.8463850001  4.7654359977
C  -3.7185673847  1.2835228021  3.8170976496
O  -4.8107056412  2.1813100844  3.8439400933
C  -3.1862762615  1.0880139109  2.4170108225
S  -1.7074326827  0.1687987319  2.2220483228
C  -3.7692058591  1.6474120794  1.3487749685
S  -2.9914184530  1.5480449677  -0.2277552477
C  -5.0847630614  2.3549350879  1.4575306036
C  -5.7197052611  2.0000256564  2.7920080755
C  1.5508969541  2.8205308862  -3.8447250525
C  2.2567207944  1.8750634097  -2.8964941035
O  3.4026653514  2.5515453464  -2.4140642716
C  1.3900083637  1.4248027178  -1.7423144045
S  -0.3254251563  1.1267251814  -2.0071005608
C  1.8957905884  1.3148108239  -0.5018088452
S  0.8772812375  0.9131959983  0.8587178110
C  3.3435056566  1.5771200006  -0.2068201132
C  4.1213645298  1.7489018808  -1.4991609125
W  -1.1827544547  0.0615803322  -0.0577203809
O  0.1190480335  -1.7279981375  -0.3381203912
C  -0.2640589119  -4.5940378803  1.0573754338
C  -1.3866268753  -4.7992852665  0.6855781653
C  -5.5764956599  -3.4977476980  -1.4373053207
O  -6.6424840783  -3.9851359126  -1.1177042787
N  -4.5471791097  -4.2506867798  -1.8793584588
N  -6.5547908490  -1.3288341722  -0.9342379689
C  -7.5757157123  -1.0781262296  -1.7975047522
O  -7.4642241587  -1.1513300446  -3.0007530103
C  -4.6755010024  -5.6865729981  -2.0241559989
C  -8.8872230029  -0.6745199988  -1.1324849994
H  6.1324133831  0.5722097214  5.9230695302
H  2.6117641008  -2.3859651962  3.8540285608
H  2.8536514523  -3.8991703590  3.0116918062
H  4.7313117857  -3.5283733510  4.5311712752
H  4.9705309343  -0.9517258718  3.1755224170
H  8.0890056954  0.5741149479  -3.8677486626
H  9.0240674062  -0.8666505968  -3.4965505571
H  7.6146992606  0.1590134145  -0.1991006145
H  5.4174648581  -1.0368670577  0.3543741565
H  6.5093212285  -1.8001654441  -4.8392979708
H  4.4514648844  -3.1381715040  -5.0433926953
H  3.5092943298  -2.5256641269  -0.9056340486
H  2.9677594782  -3.4893893748  -3.1049827954
H  2.8559354153  5.2410127043  -2.5915733080
H  1.6004103457  6.4433735630  -2.2514036283
H  3.3896099441  5.0773823024  -0.1661254016
H  2.1931168466  6.3083800967  0.1962658129
H  1.6030694251  3.6057828065  -0.9177177287
H  -0.9067413514  5.5090034282  1.5344664774
H  0.7617797111  5.6596414261  1.7739102677
H  -1.5339989329  3.5519059144  0.3237705637
H  -0.6272038200  3.1511241228  -1.0309306160
H  -4.3350818219  -2.2655365144  0.5902464812
H  -4.4024396091  -0.6032596463  0.0206692722
H  -2.2874041912  2.7988166810  4.3918997429
H  -1.8244575406  1.1615282681  4.8533114007
H  -4.0429738183  0.3026810524  4.2046129267
H  -5.7416838304  2.0481705982  0.6378726525
H  -6.0826898570  0.9614812789  2.7560237890
H  1.1376288895  3.6881519883  -3.3268573685
H  0.7228062109  2.3182456707  -4.3411887730
H  2.5748350298  0.9854208218  -3.4644830053
H  3.7370368443  0.7366115858  0.3655844835
H  4.3268132825  0.7684461389  -1.9440584330
H  -0.3429630901  -2.5634281746  -0.1789744811
H  -3.0934358076  2.0037228498  5.7560011430
H  -4.9630083060  3.4397852580  1.3643582737
H  -6.5798363751  2.6391986046  3.0046617092
H  2.2446689598  3.1734374259  -4.6087080654
H  3.2996637418  6.8232818229  -1.9558472252
H  5.0834337347  2.2354542511  -1.3280910802
H  3.4377911387  2.4603169486  0.4390489239
H  7.4752645112  0.1921477318  4.8643586000
H  5.9421003901  0.7369260326  4.1733272625
H  9.1040662127  0.5305168705  -2.4312807634
H  5.3048890813  -3.4530733068  2.8768896495
H  -5.0285597890  -1.5757175549  -2.3054265800
H  0.9869955334  -1.8100961695  0.1623848165
H  0.7278854881  -4.3256108995  1.3525569652
H  -9.5085544634  -1.5628947329  -1.0107559587
H  -8.7496649001  -0.2207171244  -0.1509141601
H  -9.4185941546  0.0235104693  -1.7746011710
H  -2.3865311349  -4.9513105795  0.3565368566
H  -3.6659000642  -3.8035866964  -2.0856872041
H  -6.8035452641  -1.4409583415  0.0350461979
H  -5.4496872244  -5.9463069673  -2.7468003312
H  -3.7260713077  -6.0845280794  -2.3749034952
H  -4.9260626033  -6.1678346059  -1.0780106555