116
charge=-1, multiplicity=1, basis=def2-QZVPP, AUX_BASIS_CORR=rimp2-def2-QZVPP, mem_total=700000, SCF_ALGORITHM=GDM, xc_grid=000099000590, num_basis=5135, num_pairs=3915094, num_threads=128
C  6.3934809807  0.4922209456  4.9688259527
C  5.9184454349  -0.9442329324  5.1216312224
O  5.8928754806  -1.4963660978  6.2070059546
N  5.5351371555  -1.4948866781  3.9586150316
C  4.7509440208  -2.7002439316  3.8226550215
C  3.3596537755  -2.3793576289  3.2822684987
C  3.3682601268  -1.6663903405  1.9221325046
O  4.2539157823  -0.7815659801  1.7425028773
O  2.5039637789  -1.9963196673  1.1012649964
C  -5.2755579432  -2.2851709952  -1.1452920127
C  -4.0726495414  -1.7718341714  -0.3556453418
S  -2.6804390217  -1.4438588409  -1.4936644947
C  8.4260919727  -0.1556390101  -3.0200869719
C  7.2418203852  -0.5868956835  -2.2232932327
C  6.8941866793  -0.1758254700  -0.9636533057
C  6.2217087274  -1.5060407073  -2.6276350040
N  5.7297369874  -0.7622148932  -0.5682021646
C  5.2924764256  -1.5724692788  -1.5687602036
C  5.9922412861  -2.2858916887  -3.7685678717
C  4.1348944280  -2.3452038060  -1.6288008870
C  4.8686408080  -3.0859729343  -3.8173670842
C  3.9441890160  -3.1098349668  -2.7564879991
C  2.4010320487  5.8579340989  -2.2448118924
C  1.6054362900  5.7256722569  -0.9570287498
N  0.7313817401  4.5744601393  -1.0334345975
C  -0.5731892902  4.5358429827  -0.8251143737
N  -1.1700682802  5.5280446935  -0.1267966761
N  -1.3130215953  3.5893556784  -1.3586834875
C  -2.7013230032  1.9734930030  4.6950090057
C  -3.8271299449  1.5271053777  3.7839452814
O  -4.7727081220  2.5736830117  3.7491923129
C  -3.3072796879  1.1872823788  2.4071199754
S  -2.0801466785  -0.0352550012  2.3155299574
C  -3.8087737083  1.7495042884  1.2907013404
S  -3.1923070697  1.3440540175  -0.2676270014
C  -5.0035871341  2.6563961237  1.3637345660
C  -5.6959165832  2.4657401435  2.7013663692
C  1.4764579410  2.5083438527  -3.9720851095
C  2.1651664737  1.7120655615  -2.8725021667
O  3.2221692908  2.5236572550  -2.4062925855
C  1.2346982334  1.3413619907  -1.7320368253
S  -0.2869155112  0.5726467198  -2.1163985164
C  1.5730825638  1.6061858540  -0.4582996584
S  0.4244771281  1.3994416658  0.8430970892
C  2.9505539620  2.0561741340  -0.0650184715
C  3.8601121825  1.9697564128  -1.2760275124
W  -1.2296688985  -0.1789686562  0.1366082198
O  1.9342729982  -4.5155572586  -0.0148459530
C  -0.4208994993  -1.7702497471  1.1135269525
C  -0.1871281941  -1.8972070326  -0.1498759088
C  -5.4664641796  -3.8186028766  -1.0739367747
O  -6.4883697865  -4.3118776183  -0.6378979584
N  -4.4494321867  -4.5672161055  -1.5474426549
N  -6.5112622461  -1.6483687649  -0.7369207915
C  -7.5228591894  -1.4275971140  -1.6254381945
O  -7.3833848114  -1.5043185848  -2.8261281019
C  -4.5401930058  -6.0150839991  -1.6047469944
C  -8.8701140288  -1.0594639932  -1.0148609900
H  5.6271334199  1.1623873906  5.3611469042
H  2.8374759960  -1.7411744266  4.0031667379
H  2.7778640924  -3.2987111429  3.1965034162
H  4.6853237876  -3.1902118807  4.7936028939
H  5.4151048493  -0.8963720331  3.1450303962
H  8.1314779092  0.3306949764  -3.9532824657
H  9.0667874681  -0.9992152446  -3.2888497852
H  7.4134257027  0.5106571082  -0.3117797106
H  5.2243873873  -0.6637159359  0.3267727445
H  6.6855230910  -2.2645253346  -4.6015828701
H  4.6844677999  -3.6960323636  -4.6929349017
H  3.4063049326  -2.3044428933  -0.8313847649
H  3.0511694232  -3.7172280261  -2.8387635127
H  2.9827812269  4.9593315842  -2.4408396977
H  1.7384147872  6.0276024909  -3.0930305201
H  2.2777217932  5.6219633098  -0.1016740961
H  1.0031709451  6.6199585362  -0.7939172367
H  1.1563720833  3.6918237408  -1.3082579303
H  -2.1619245318  5.4505425313  0.0202003083
H  -0.6619705359  5.9301965413  0.6417213546
H  -2.1464365631  3.2493032959  -0.8797866342
H  -0.8803497278  2.8184721333  -1.8741206676
H  -3.7619194233  -2.4745784728  0.4213538479
H  -4.3631526983  -0.8459227556  0.1374232512
H  -2.1728404098  2.8229077453  4.2616622132
H  -1.9821709787  1.1700311636  4.8402976686
H  -4.2952714962  0.6249758123  4.2133094644
H  -5.6884403352  2.4295397410  0.5425971054
H  -6.2039721356  1.4899357320  2.7138585464
H  1.0140032811  3.4202835713  -3.5910265974
H  0.6973683072  1.9131068164  -4.4452944548
H  2.5715624725  0.7853627872  -3.3069831873
H  3.3259128769  1.3947987189  0.7204300970
H  4.1282721610  0.9261627851  -1.4647123712
H  2.0197328209  -3.6946740996  0.4974767587
H  -3.0893888754  2.2643445254  5.6722479498
H  -4.7037640481  3.7031722560  1.2404685335
H  -6.4563212634  3.2321931152  2.8662769003
H  2.2017517209  2.7913803421  -4.7350243563
H  3.0882603620  6.7015049183  -2.1763304669
H  4.7872968077  2.5246991030  -1.1236859806
H  2.9347577195  3.0699715571  0.3568392059
H  7.2944196215  0.6490858346  5.5598620776
H  6.5938674717  0.7768356172  3.9368978422
H  9.0409909045  0.5533761663  -2.4645478198
H  5.2605281475  -3.3931268324  3.1463844251
H  -5.1429633329  -2.0190573602  -2.1966713842
H  2.7942208039  -4.6098425311  -0.4276751818
H  -0.2757169691  -2.2340273888  2.0755361314
H  -9.4860151712  -1.9579402651  -0.9586652348
H  -8.7922582063  -0.6404538610  -0.0114033696
H  -9.3738071356  -0.3449534205  -1.6611011886
H  0.2519711948  -2.5361223813  -0.8973510059
H  -3.6012330859  -4.1079482338  -1.8449893881
H  -6.7796377308  -1.7892937949  0.2235733922
H  -5.3926038342  -6.3309978403  -2.2059283762
H  -3.6302609269  -6.3993476371  -2.0588221652
H  -4.6431863237  -6.4534234107  -0.6116543177