96
charge=-1, multiplicity=6, basis=def2-QZVPP, AUX_BASIS_CORR=rimp2-def2-QZVPP, mem_total=700000, SCF_ALGORITHM=GDM, xc_grid=000099000590, num_basis=4178, num_pairs=2970684, num_threads=128
H  2.4581264319  0.6524355531  -7.6377688370
C  2.0727120044  1.5301300069  -7.1145610165
H  1.5181993885  2.1219011230  -7.8457462239
H  2.9321787235  2.1237163999  -6.8016728941
C  1.2147618180  1.1462688835  -5.9400721341
C  1.5527414458  1.4901964169  -4.6383713234
H  2.4606030001  2.0546934741  -4.4554389640
C  0.7627252377  1.1320143070  -3.5530836943
H  1.0653192152  1.4158298730  -2.5523666521
C  -0.4109870315  0.4033207587  -3.7457660554
O  -1.2304908499  0.0347491513  -2.7598228844
H  -0.8618482268  0.2265933598  -1.8664399613
C  -0.7577924568  0.0461682785  -5.0526163620
H  -1.6560954648  -0.5359893265  -5.2138576589
C  0.0409881381  0.4137418732  -6.1174748975
H  -0.2546127904  0.1144289556  -7.1172590822
H  3.6332527657  -2.9391343439  -1.3037964326
C  3.1648429026  -3.8625130167  -1.6395149339
H  3.9349087783  -4.5801331027  -1.9203320534
H  2.5880415778  -3.6524704906  -2.5416942991
C  2.2387902909  -4.4610834573  -0.5915832643
O  1.9554656443  -3.8179510221  0.4373779446
O  1.8015704472  -5.6108885144  -0.8731625597
H  3.0325004455  0.8339569586  2.6477880749
C  1.9505079519  0.9262549260  2.7604859500
H  1.7222720285  1.9822234525  2.8913521673
H  1.6712526861  0.4111338955  3.6819661815
C  1.2129918394  0.4028714207  1.5746165426
N  1.2677047930  -0.8876520981  1.1054315891
H  1.8190242701  -1.6700545971  1.4277656360
C  0.4742355781  -0.9738968630  0.0221612830
H  0.3391271014  -1.8934031098  -0.5241110262
N  -0.0908655527  0.1757148840  -0.2409987749
C  0.3590913297  1.0378003850  0.7171788672
H  0.0472652011  2.0702360694  0.7443573904
H  -6.8808718701  -9.2639350457  -1.7949182251
C  -6.1268758983  -9.3324389198  -1.0144680027
H  -6.4453474543  -10.0767484353  -0.2879812238
H  -6.0272591456  -8.3754711344  -0.5074368173
S  -4.5322714496  -9.8976618737  -1.6788326499
H  -4.3397843349  -8.8911385029  -2.5391777352
H  -2.6169520143  0.5491013885  4.7492196560
C  -2.7355769573  -0.5321710178  4.7984319862
H  -3.7579459739  -0.7448028878  5.1114964295
H  -2.0548591270  -0.9027512306  5.5680075159
C  -2.4380836821  -1.1559340604  3.4381179975
H  -1.4255854668  -0.8791413350  3.1146719438
H  -3.1291923850  -0.7540413702  2.6948281027
N  -2.6086939482  -2.5909418753  3.4963856100
H  -2.3960129841  -3.0035528779  4.3897628351
C  -2.3970689717  -3.4146947075  2.4146917909
N  -2.3675268308  -4.7657736729  2.7351707039
H  -2.8252516106  -4.9795303546  3.6090597505
H  -2.8116937021  -5.3386613882  2.0038286658
N  -2.2092252435  -3.0622379295  1.2029827004
H  -2.2715742567  -2.0682377356  1.0348532637
H  -1.9312670254  -4.1757918769  -0.1226809927
H  -7.0547550900  -0.2375840168  2.4221312730
C  -6.3686190125  -0.4980619866  3.2268810020
H  -6.7602535649  -0.0690197103  4.1511360352
H  -5.4215913928  -0.0077500601  3.0067701772
C  -6.2078380147  -1.9985040769  3.3505041787
H  -7.1564905036  -2.4736776314  3.6116748488
H  -5.5179398162  -2.2523904739  4.1615684897
C  -5.6760350645  -2.6245990373  2.0748384419
O  -5.2283091248  -1.9490007342  1.1766805380
O  -5.7663546950  -3.9257530969  2.0932312250
H  -5.4696007538  -4.3605213836  1.1961125051
Mn  -0.1364401434  -6.4414519014  -0.5716236479
O  -1.8476551531  -5.5647337892  -4.1661249217
C  -1.6055566583  -5.7504332740  -2.9870347092
O  -0.7453619628  -6.5684527721  -2.5098288763
C  -2.4620470063  -5.0160710721  -1.9154524674
C  -2.9285515804  -3.6435084563  -2.3681549910
O  -1.6243735058  -4.8724067552  -0.7689330982
C  -3.6499380658  -5.9928976729  -1.6025585948
H  -3.2250952063  -7.0006233896  -1.5991910748
C  -4.7443164612  -5.9508319385  -2.6619956046
C  -4.1988134860  -5.7401067352  -0.2018448974
O  -3.6698179632  -6.3592770707  0.7654889308
O  -5.1332335646  -4.9274571214  -0.0905585753
H  -2.0759752445  -2.9770381338  -2.5073347156
H  -3.6024311824  -3.1925160011  -1.6371753444
H  -3.4452197338  -3.7006552462  -3.3222140610
H  -5.2825219034  -5.0057716463  -2.6460749652
H  -5.4814755027  -6.7377813870  -2.4817307252
H  -4.3270394767  -6.0978542115  -3.6571668973
O  1.3320506837  -8.1837861064  0.1843228911
H  2.1413010301  -7.6840638870  0.0285348368
H  1.1568009951  -8.0949941430  1.1267622820
O  0.2286181201  -5.6782013703  1.5942672298
H  -0.5508977116  -5.3722773325  2.0889744161
H  0.7935991827  -4.8994659538  1.4055170199
O  -1.6276187160  -7.8621195792  0.3431769465
H  -2.4646013896  -7.3260072613  0.5223215133
H  -1.9149133930  -8.5885231763  -0.2189867947