116
charge=1, multiplicity=1, basis=def2-QZVPP, AUX_BASIS_CORR=rimp2-def2-QZVPP, mem_total=700000, SCF_ALGORITHM=GDM, xc_grid=000099000590, num_basis=5074, num_pairs=4150457, num_threads=128
C  -0.8839206703  -5.3686667518  2.1404981844
S  -1.4346903365  -4.3561060699  0.7598387614
N  0.4163700638  -4.5509896049  -2.9787681899
C  1.1351748232  -3.3184006025  -2.7224362034
C  0.2390167299  -2.0954386329  -2.8352420013
S  -1.0126390027  -1.9946010105  -1.5722273486
C  2.0661521110  -3.3676471877  -1.5007552835
O  3.1215930450  -3.9641222326  -1.6636484226
O  -1.6721119757  -0.6663468176  -1.7773560677
O  -1.9936886569  -3.1195782232  -1.8553902300
N  1.7260540845  -2.7765061006  -0.3352931640
C  2.7976591124  -2.7422816854  0.6546863039
C  2.2150633141  -2.5307432835  2.0314110409
O  2.9063518475  -2.3815793399  3.0362401128
C  3.8033830885  -1.6332843994  0.3511615806
O  3.2080787577  -0.3410156141  0.4101852928
N  0.8801748621  -2.5089614784  2.0423491085
C  0.2685980756  -2.1169799135  3.2912991019
C  -1.2251487420  -2.4269635608  3.2378873310
S  -1.8773065247  -2.4181553041  1.5330374489
C  0.8992073049  -2.8414408234  4.4958995795
O  0.7280987643  -4.0103754366  4.7054744160
O  -1.1661957310  0.3338539028  1.6823125202
C  -5.9190000243  6.5760000700  0.2040000353
C  -5.1775941221  5.2493279984  0.1006036373
C  -4.0751218491  5.3066633946  -0.9504406351
C  -4.6139428640  4.8307601164  1.4552466052
C  -4.1060000081  1.3429999007  -2.5420000421
N  -3.7091696375  0.8865813023  -1.2302162987
C  -4.3491115882  1.1819541795  -0.1229180687
N  -5.5543110609  1.7791725292  -0.1672677668
N  -3.8466443063  0.8507378710  1.0620648341
C  9.8250000023  1.5730000010  -2.5230000019
C  8.3519847821  1.5350032964  -2.2312102861
C  7.8451479963  0.8750234749  -1.1203185381
C  7.4363252591  2.1692988305  -3.0693753105
C  6.4845495743  0.8420542075  -0.8478088461
C  6.0770472393  2.1448318138  -2.8161808097
C  5.5850857604  1.4746726069  -1.6984648605
O  4.2530765382  1.4724739873  -1.4887229292
C  -7.1799999708  -2.1549999688  -3.2939999954
N  -6.4897739665  -2.7775224242  -2.1862291645
C  -5.1615015914  -2.9019893437  -2.1106034751
N  -4.3864414094  -2.4920173771  -3.1037615583
N  -4.5947852772  -3.4129099397  -1.0283047389
Co  0.0705215103  -2.2495044594  0.3856433079
O  0.0933503649  1.4344445767  3.6072421324
O  2.5546849276  0.6515190109  3.0655982085
H  4.6055970965  -1.6590735905  1.0894992095
H  4.2479353878  -1.8082261098  -0.6315322501
H  2.2987179645  -0.3884587169  0.0461834999
H  3.3542317023  -3.6860562728  0.6663992910
H  -5.2439915432  7.3764997230  0.5128145132
H  -6.7278548998  6.5293049520  0.9342108561
H  -5.9105212268  4.4968066705  -0.2186066519
H  -3.3355128779  6.0685752814  -0.6968708788
H  -3.5363861967  4.3591143416  -1.0309322480
H  -4.4716240104  5.5575463422  -1.9353544877
H  -3.9171734070  5.5821896761  1.8318714091
H  -4.0575862696  3.8910792320  1.3932485762
H  -5.3986563421  4.7200141916  2.2066574019
H  -5.0376284093  0.8823293428  -2.8810564875
H  -3.3216715998  1.0566676112  -3.2352582005
H  -2.8762168499  0.2647820827  -1.2144648239
H  -4.3887171106  1.0061806940  1.8930841775
H  -2.8540396879  0.6190779519  1.1958643170
H  -5.8607287710  2.3180020089  0.6250567058
H  -5.9143901236  2.1006426687  -1.0485128515
H  10.2150650976  2.5917249799  -2.4893300948
H  10.3899289494  0.9849742143  -1.8006573927
H  8.5244617615  0.3717324585  -0.4426293678
H  7.7944179667  2.6955608378  -3.9468627694
H  6.1325712315  0.3237594691  0.0370743473
H  5.3855592588  2.6409691915  -3.4852983793
H  4.0268530881  0.9080256205  -0.7301694506
H  -6.7764173867  -1.1626777967  -3.4953256332
H  -7.1371192590  -2.7524488844  -4.2070773407
H  -7.0442971071  -3.2632134453  -1.5027978271
H  -4.7493664966  -2.3647373005  -4.0313856753
H  -3.3752775698  -2.6106123249  -2.9772066182
H  -5.1092403945  -3.5723584828  -0.1816892444
H  -3.5737764279  -3.4900919430  -1.0205875203
H  -0.0206820357  -4.9490758546  2.6469333288
H  -0.5927295415  -6.3090849470  1.6701642053
H  -0.2048170571  -4.7932208798  -2.2199624892
H  1.0850990191  -5.3028546766  -3.0783286856
H  1.8359056668  -3.2055153893  -3.5539222168
H  0.8210370399  -1.1775904205  -2.7366865106
H  -0.2812357156  -2.0891994651  -3.7955122715
H  0.3986790093  -1.0473990094  3.4646381043
H  -1.8157074668  -1.6733587220  3.7590486340
H  -1.4764510363  -3.3914390636  3.6772819436
H  1.4418662080  -2.1962521480  5.2028807498
H  0.1094771004  2.3941928724  3.6436433083
H  1.0349514471  1.1593849178  3.4253763870
H  2.8532558061  -0.1495551215  3.5105270123
H  2.7877533137  0.4896735180  2.1362361290
H  -4.2040778565  2.4290940280  -2.5842955636
H  -8.2259200018  -2.0362225144  -3.0279807045
H  10.0491769780  1.1749357063  -3.5138254762
H  -1.6915085939  -5.5722463489  2.8393638438
H  -6.3537872477  6.8660209074  -0.7529599760
H  -0.7946466845  0.8146320581  2.5015746176
C  -0.4961690672  4.2556506612  0.3861578220
C  -0.7333591148  2.9505728581  0.7917830713
C  0.0358694631  1.8974348578  0.2932666907
C  1.0308187922  2.1903696573  -0.6380907050
C  1.2824971726  3.4935060608  -1.0268178153
C  0.5194513325  4.5338510577  -0.5152702466
H  -1.1028086543  5.0583372157  0.7854915140
H  -1.5332197123  2.7709473452  1.4981443902
H  1.6119929885  1.3923116004  -1.0727718424
H  2.0857715263  3.6884138342  -1.7240100058
H  0.7163705063  5.5540115906  -0.8165089314
C  -0.1957068028  0.4854667028  0.7115524092
N  0.4353856198  -0.4617982314  0.1913135326