96
charge=-1, multiplicity=6, basis=def2-QZVPP, AUX_BASIS_CORR=rimp2-def2-QZVPP, mem_total=700000, SCF_ALGORITHM=GDM, xc_grid=000099000590, num_basis=4178, num_pairs=3067924, num_threads=128
H  2.3609623263  0.8601712501  -7.9475053796
C  2.0364000002  1.4984999964  -7.1234999926
H  1.3162497528  2.2101636496  -7.5293066053
H  2.9054881454  2.0645092992  -6.7875277306
C  1.4386666161  0.6847265948  -6.0007891358
C  2.0915952266  0.4914251975  -4.7882912476
H  3.0610434730  0.9477366986  -4.6208969118
C  1.5388243588  -0.2865476825  -3.7794828700
H  2.0981043752  -0.4356848089  -2.8617529644
C  0.3007425457  -0.9110299892  -3.9432829450
O  -0.1323327701  -1.6516242518  -2.8903600385
H  0.4514035654  -1.1762513266  -1.1191334815
C  -0.3607308552  -0.7341615530  -5.1582954948
H  -1.2890417677  -1.2495777947  -5.3557618979
C  0.2075574014  0.0528913847  -6.1480371400
H  -0.3354424174  0.1584299213  -7.0806342807
H  3.8750643460  -3.4594789843  -0.8945376198
C  3.1749999819  -3.8602000006  -1.6241999917
H  3.6758051434  -4.6207030416  -2.2237459400
H  2.8726712207  -3.0720633317  -2.3162157734
C  1.9293796746  -4.4541460213  -0.9567937033
O  1.8567850558  -4.3776251357  0.2984590373
O  1.0634533512  -4.9588719983  -1.7029207545
H  2.8053596971  0.5095738430  3.2732038909
C  1.9504999124  0.9449999744  2.7548000233
H  2.2739147704  1.8822202354  2.3086444542
H  1.1832321367  1.1755284774  3.4947687079
C  1.4266479994  0.0307801372  1.6925003308
N  0.9280243057  -1.2325121776  1.9596415402
H  0.8900338875  -1.6766703676  2.8619537860
C  0.4962599477  -1.8126952407  0.8445197210
H  0.0311245437  -2.7816861928  0.7721765307
N  0.7215649650  -0.9741246212  -0.1436642380
C  1.2894148572  0.1776526419  0.3498464024
H  1.5443652411  1.0050972142  -0.2884617222
H  -6.9085493401  -8.7435916462  -0.5961556847
C  -6.0863999774  -9.3744999879  -0.9394000001
H  -6.4961518646  -10.0958852672  -1.6487622228
H  -5.7182722930  -9.9360129752  -0.0761834899
S  -4.7684004193  -8.3640955358  -1.7547800558
H  -5.5029530949  -5.8037169919  -2.9413289409
H  -2.2491971393  0.3738196262  5.2093666677
C  -2.7209998903  -0.5266999892  4.8163999755
H  -3.7658253828  -0.5062462323  5.1301061431
H  -2.2485945609  -1.3933846999  5.2790277156
C  -2.6037571065  -0.5818262029  3.3048309223
H  -1.5485287140  -0.5679066915  3.0205407177
H  -3.0547576887  0.3200327701  2.8692240170
N  -3.2023486913  -1.7918803305  2.8036725797
H  -4.0993739021  -1.9915999378  3.2191746582
C  -3.1391825910  -2.1222552866  1.4607315707
N  -3.8488756068  -3.1929125618  1.1085820019
H  -4.2234677986  -3.8204119520  1.7947932299
H  -4.1645609598  -3.3205333649  0.1339412292
N  -2.4000126036  -1.5025703428  0.5929386699
H  -1.8764570057  -2.3084128019  -0.7588671045
H  -2.1401633897  -0.5702378016  0.8816179083
H  -7.0292804504  0.3242264053  3.0902187219
C  -6.3594000218  -0.5192999918  3.2572999967
H  -6.3329619568  -0.7040852937  4.3337681374
H  -5.3753234566  -0.1893940893  2.9305386760
C  -6.8272940610  -1.7415260337  2.4939085120
H  -7.8740755617  -1.9608447371  2.7165967228
H  -6.2857786183  -2.6403693061  2.8104643814
C  -6.6524230932  -1.6126489155  0.9837914580
O  -6.0438224198  -0.6847402975  0.4977704721
O  -7.2132977020  -2.6001914989  0.3630594841
H  -6.9622958056  -2.7324475750  -0.6664677663
Mn  -1.1534898853  -5.2534696286  -1.5133260738
O  -2.1606296827  -3.0606499073  -4.8703382357
C  -1.7132898465  -3.3915903680  -3.7842058475
O  -1.4472666593  -4.5647309547  -3.4036059119
C  -1.4717074860  -2.2593517129  -2.7192923923
C  -2.5426251878  -1.1866750102  -2.7660953992
O  -1.3776332382  -2.8335661187  -1.4694806320
C  -5.6212754623  -4.7851685033  -3.3388404763
H  -4.6958404016  -4.5784067227  -3.8835899805
C  -6.8173611917  -4.7279513664  -4.2723238212
C  -5.6898825151  -3.8433040929  -2.1537455223
O  -4.6631232629  -3.7757718829  -1.4220189900
O  -6.7413668003  -3.1987376596  -1.9543077451
H  -2.3327684246  -0.3889575208  -2.0517938982
H  -3.5000796191  -1.6284188715  -2.4929663178
H  -2.6491934196  -0.7496583424  -3.7535947004
H  -6.9440370617  -3.7377172585  -4.7105018677
H  -7.7406558383  -4.9772883465  -3.7510383012
H  -6.6910342777  -5.4422252622  -5.0870007777
O  -1.4415131622  -7.4548248855  -2.2765650520
H  -1.6211499799  -7.3580893456  -3.2180808305
H  -2.2383427383  -7.9146516421  -1.9397687098
O  -0.5904924967  -4.9768317761  0.6492827493
H  -0.9324033278  -5.6008060410  1.2921890389
H  0.4157971907  -4.9166273604  0.6819135458
O  -3.1437200418  -5.7543017506  -0.7294255006
H  -3.7682937441  -5.0534134748  -1.0590035753
H  -3.6591089596  -6.5957082422  -0.8486748451