58
charge=2, multiplicity=1, basis=def2-QZVPP, AUX_BASIS_CORR=rimp2-def2-QZVPP, mem_total=240000, SCF_ALGORITHM=GDM, xc_grid=000200000974, num_basis=2744, num_pairs=1631035, num_threads=64
N  -0.7614474341  -3.8858741819  -3.3962855645
H  -0.5262900097  -3.9698724471  -4.3711438642
C  -0.0663840096  -3.1675830090  -2.4666099911
N  -1.8385374267  -4.1321298456  -1.5153032151
C  -0.7480386353  -3.3286448192  -1.3010980325
H  -0.5197517974  -2.9071955929  -0.3365162053
C  -1.8167397279  -4.4494449962  -2.7874519956
H  -2.5330463821  -5.0726831602  -3.2962179271
N  -1.3952908947  -7.3587036624  2.8057207206
H  -1.4518041192  -7.9463469525  3.6207430352
C  -0.2581400172  -7.0694430107  2.1062049807
N  -2.0017597259  -6.0191689318  1.1925349008
C  -0.6524722894  -6.2365125583  1.1054608303
H  -0.0473695453  -5.7870050478  0.3359346728
C  -2.4181494218  -6.7106457957  2.2260848816
H  -3.4351712809  -6.7737871358  2.5772262828
N  -5.9811148613  -2.8051889404  2.1870600277
H  -6.3339779361  -2.4363008089  3.0548553962
C  -6.5519320059  -2.6481870076  0.9560739974
N  -4.6529348012  -3.8030577894  0.7718567422
C  -5.7116052041  -3.2725842343  0.0859530571
H  -5.7945149560  -3.3465498368  -0.9851196991
C  -4.8434235755  -3.4998175502  2.0338657745
H  -4.1889788889  -3.7510371154  2.8527467239
N  -7.8136628414  -9.8946829080  0.9926106758
H  -7.7388426118  -10.7835526846  1.4606045630
C  -8.8872409749  -9.0522769828  1.0440869919
N  -7.3070222049  -8.1920194843  -0.2576519084
C  -8.5596385374  -7.9933970786  0.2571633172
H  -9.1469776957  -7.1201269700  0.0305395327
C  -6.8835297752  -9.3485541861  0.2028615341
H  -5.9358735908  -9.8123603736  -0.0156001112
N  -4.7802057521  -10.2420568963  -3.9753241961
H  -4.0259891159  -10.7609516573  -4.3948307435
C  -6.0890269927  -10.6309659866  -3.9274899778
N  -5.8452935125  -8.6450142100  -2.9376176620
C  -6.7388045985  -9.6258539152  -3.2793939433
H  -7.7868955645  -9.5565301404  -3.0387883287
C  -4.6747421892  -9.0491847711  -3.3700565632
H  -3.7415731240  -8.5219241740  -3.2575589775
N  -8.5848335463  -5.0086081196  -4.0846660517
H  -8.9425118603  -4.8733472907  -5.0170416804
C  -8.9169459990  -4.2675470042  -2.9854690020
N  -7.4594056012  -5.8580884340  -2.4307141498
C  -8.2091982257  -4.8099598068  -1.9578154962
H  -8.1892561428  -4.5094027197  -0.9237972626
C  -7.7109367945  -5.9520209315  -3.7185524929
H  -7.2867211200  -6.6764298908  -4.3943469223
Cu  -6.1968503778  -7.0261489519  -1.4476701615
Cu  -3.0638757663  -4.7501386629  -0.0389670917
O  -4.5772933240  -7.2276040889  -0.6085233168
O  -4.4988443547  -6.1649084793  -1.3399179196
H  0.8242325329  -2.6126759585  -2.7035495773
H  0.7063700613  -7.4647625047  2.3721707887
H  -7.4617686905  -2.0936914909  0.8059110737
H  -9.7738386756  -9.2703397451  1.6130490821
H  -6.4385173471  -11.5560034148  -4.3516262723
H  -9.6115802382  -3.4469299689  -3.0215704190