81
charge=1, multiplicity=5, basis=def2-QZVPP, AUX_BASIS_CORR=rimp2-def2-QZVPP, mem_total=700000, SCF_ALGORITHM=GDM, xc_grid=000099000590, num_basis=3687, num_pairs=2584396, num_threads=128
C  42.1644220037  36.5769369999  28.7705969970
H  41.9776879899  35.5630639890  28.4291516609
H  43.2460753371  36.7031014996  28.8248146580
N  41.5530975890  36.7490158975  30.0633919115
H  40.8552891745  36.0828003930  30.3414943940
C  41.6873161022  37.8520223775  30.8141184101
N  42.4404099857  38.8561952927  30.3941713042
H  42.5549540075  39.7126406881  30.9738711936
H  42.7562798520  38.8965905002  29.4423310609
N  41.0990155624  37.9274669306  31.9950574991
H  40.9329114448  38.8877643982  32.4036987419
H  40.5637361302  37.1500850327  32.3370522701
N  36.6217219635  42.4956778833  34.7801104134
H  35.8201075397  42.3431896994  34.1926025979
C  36.9225680222  41.8131800125  35.9255699961
C  37.5872314056  43.4005162374  34.5611276631
H  37.6158052354  44.0708365940  33.7174971730
N  38.4915120170  43.3374789839  35.5098334197
C  38.0894364461  42.3525816158  36.3696594848
H  38.6566595500  42.0928284487  37.2481534975
N  41.5729877381  44.0538034933  39.4923955585
H  41.6957715867  44.4443197100  40.4110627951
C  41.7995869920  42.7535660174  39.1324019718
C  41.1534619910  44.7203851163  38.4059286932
H  40.8994097619  45.7673420680  38.4092308032
N  41.0985812806  43.9225426230  37.3675121924
C  41.5094484642  42.6934796289  37.8053288924
H  41.5885902766  41.8436966940  37.1494029934
C  45.4260370005  44.2944669966  37.6132939038
H  45.2160931663  43.5281255885  38.3577556103
H  44.9000372323  45.2075571711  37.8829625227
S  44.7646434249  43.8451043847  35.9779771726
N  38.5194350953  48.2171002595  36.2616715958
H  38.3701272849  49.1884906358  36.0483743452
C  37.7821050297  47.4588129756  37.1290879897
C  39.4663856132  47.4329659059  35.7252237080
H  40.1896015834  47.7666578661  35.0000042747
N  39.3777751106  46.2212987257  36.2115751482
C  38.3298987101  46.2190916212  37.0871691144
H  38.0230984623  45.3311185493  37.6138110814
N  45.1133574918  45.1141301589  32.1941025351
H  45.4181658015  44.8593598203  33.1192749980
C  45.3664589523  44.4345360007  31.0352781308
C  44.2574302635  46.1159480361  31.8949975300
H  43.8869145517  46.7981548456  32.6438180832
N  43.9544407276  46.1290949838  30.6257149528
C  44.6420451383  45.0872066512  30.0786419832
H  44.5863715764  44.8644982953  29.0249939348
C  47.1502360074  40.5102560044  35.6376530109
C  46.6031063310  41.6855068579  36.1533767863
H  46.9903990767  42.0845628151  37.0821811408
C  45.5784290347  42.3437462373  35.4879278816
C  45.1152525333  41.7974554752  34.2779012542
O  44.1474378469  42.4749579859  33.6414943960
H  43.7735943387  41.9920599074  32.8695230078
C  46.6738189509  39.9779660685  34.4562236561
H  47.0952663283  39.0652117951  34.0577173788
C  45.6532787103  40.6229722275  33.7759147893
H  45.2675535490  40.2168994269  32.8481610181
N  41.2447769947  42.7171828458  34.4261629196
H  40.8673379567  41.8566122043  34.8130851489
C  40.9922357467  42.6869674420  32.9732494404
H  39.9104316550  42.7370545705  32.8398460286
C  41.6124180596  43.8718236596  32.2589312211
H  42.6982545463  43.9065738199  32.3080305572
H  41.3422907658  43.8515527870  31.2014616211
S  41.0183741015  45.4823250540  32.9049067413
C  41.4236777863  41.3076496245  32.4533352988
O  42.5346985205  41.1727943863  31.8779507405
O  40.6251771597  40.3912684117  32.7266580239
H  42.2513320715  42.7016479826  34.5860507750
Fe  40.3683007686  44.5074330056  35.3797294329
O  41.7457472012  45.5760591020  34.2824896322
O  39.5709473552  45.1694798797  33.2967868917
H  41.7600312472  37.2585161278  28.0182739239
H  36.2992851628  41.0295047758  36.3183133424
H  42.1488250955  42.0091869942  39.8258643945
H  46.4939941329  44.5020675036  37.5832334369
H  36.9509752835  47.8571302554  37.6839508305
H  46.0255091342  43.5848895377  30.9948149853
H  47.9512540839  40.0215927667  36.1752021868