81
charge=1, multiplicity=3, basis=def2-QZVPP, AUX_BASIS_CORR=rimp2-def2-QZVPP, mem_total=700000, SCF_ALGORITHM=GDM, xc_grid=000099000590, num_basis=3687, num_pairs=2610520, num_threads=128
C  42.1751389986  36.5824350027  28.7817700044
H  42.0318374754  35.5497729921  28.4780205416
H  43.2479685591  36.7759641245  28.7714350876
N  41.6271205822  36.7533663146  30.1057790047
H  40.9836956949  36.0557786118  30.4340211554
C  41.7495415169  37.8693835402  30.8413263291
N  42.4101867199  38.9141979972  30.3683565595
H  42.5221679304  39.7731782052  30.9448029865
H  42.6507025799  38.9713318565  29.3954829841
N  41.2365685374  37.9175613231  32.0578817671
H  41.1080521020  38.8492005050  32.5339617693
H  40.8166147978  37.1004557929  32.4621186089
N  36.5253840673  42.4906713583  34.8291870473
H  35.6863081425  42.4013858716  34.2824299216
C  36.8842539638  41.7057939747  35.8887380099
C  37.4944034515  43.3963423621  34.6260989688
H  37.4861009098  44.1349821854  33.8411853004
N  38.4556810017  43.2343595536  35.5046106202
C  38.0902873799  42.1828636060  36.2989147869
H  38.7096494052  41.8358360047  37.1092866393
N  41.1686538607  43.6869622466  39.6033553285
H  41.0476628463  43.9441907921  40.5679441059
C  41.9094180029  42.6370529929  39.1355510120
C  40.6344998680  44.3223069476  38.5488407041
H  40.0069950114  45.1929449959  38.6417372319
N  40.9862794591  43.7413364194  37.4266443101
C  41.7897504723  42.6900747994  37.7805513891
H  42.2554046742  42.0472835924  37.0535444348
C  45.4085180012  44.3079880030  37.6406630201
H  45.1786154268  43.5383470083  38.3755994383
H  44.8816275337  45.2211192328  37.9077863874
S  44.7756349279  43.8731600448  35.9912880680
N  38.8596404562  48.0766756481  36.4745417952
H  38.9113201245  49.0789366404  36.4121237333
C  37.8770119741  47.3559630271  37.0936050203
C  39.7310256793  47.2169682151  35.9279426810
H  40.6050838501  47.5048053154  35.3683678005
N  39.3588952842  45.9836160190  36.1722758249
C  38.2005408384  46.0529488365  36.8970294179
H  37.6670261073  45.1741375166  37.2162091247
N  45.0590573668  45.2111728077  32.3456986405
H  45.3964549171  44.9251787952  33.2503477546
C  45.3119880616  44.6029959966  31.1478699365
C  44.1595181929  46.1928893540  32.1170258611
H  43.7761930682  46.8172447642  32.9084623642
N  43.8283960964  46.2602448858  30.8565508827
C  44.5425300911  45.2757537159  30.2416475468
H  44.4717671765  45.1059172100  29.1791009920
C  47.1326429946  40.5158400091  35.6680439922
C  46.5968938127  41.6985438180  36.1783716126
H  46.9933715923  42.1033223305  37.1008129520
C  45.5727195011  42.3588186233  35.5137302545
C  45.0974255366  41.8070212314  34.3116253305
O  44.1285516853  42.4859036950  33.6781618330
H  43.7746226893  42.0109321134  32.8955213387
C  46.6446924319  39.9786268351  34.4932316689
H  47.0575282420  39.0604579376  34.0982305786
C  45.6238609245  40.6249666634  33.8148743042
H  45.2290314529  40.2143724466  32.8928576693
N  41.1872640289  42.7660747323  34.5507827879
H  40.8770052990  41.8781801841  34.9417643260
C  40.9785001663  42.6709174797  33.0879403590
H  39.8986053070  42.6705987954  32.9264871974
C  41.5675248066  43.8582396726  32.3534546779
H  42.6516329972  43.9234439154  32.4054485296
H  41.2992417969  43.8130003165  31.2967716824
S  40.9207386794  45.4488956692  32.9906698288
C  41.4745024506  41.2924664900  32.6099846926
O  42.4957167396  41.2160852414  31.8803333502
O  40.8062837200  40.3326152986  33.0376833256
H  42.1939426455  42.8207048484  34.7151491340
Fe  40.2566392098  44.3669878520  35.4264995992
O  41.6021852516  45.5257116326  34.3917403185
O  39.4706222147  45.0962422301  33.3117657946
H  41.6877810814  37.2176049884  28.0382412434
H  36.2718714886  40.8992859550  36.2512392429
H  42.4468182847  41.9662996890  39.7823098506
H  46.4780224910  44.5090924992  37.6318251453
H  37.0483023385  47.8181618512  37.6003647914
H  46.0011447208  43.7825334989  31.0491587906
H  47.9339716723  40.0254837494  36.2034977252