59
charge=0, multiplicity=3, basis=def2-QZVPP, AUX_BASIS_CORR=rimp2-def2-QZVPP, mem_total=240000, SCF_ALGORITHM=GDM, xc_grid=000099000590, num_basis=2730, num_pairs=1898831, num_threads=64
N  42.5651622505  46.1265941237  84.7161095242
C  41.1579013064  45.9289732471  85.0790903810
C  40.2287554102  46.3333995126  83.9216568546
O  39.0426399849  46.0519057552  84.0303637007
C  40.7647216750  46.7580848903  86.3231406857
C  40.4654307208  48.1915756792  86.0445440592
N  41.4013368787  49.1988997534  85.9728478640
C  39.2768077796  48.7593128108  85.7162602293
C  40.8318524639  50.3093133726  85.5487791118
N  39.5331820639  50.0751125081  85.4242830661
N  40.8466746905  47.0486130282  82.9803954068
C  40.0570469465  47.6602826032  81.9328247594
C  40.5045335865  47.3012801297  80.5173837989
O  39.9086948146  47.7334938297  79.5541882109
C  40.1355022504  49.1856079863  82.0611171605
S  41.8530225164  49.7746839006  82.2936238113
N  41.6196704953  46.5442472813  80.4047093244
C  42.2195554444  46.2794801648  79.1257794120
C  43.0171197185  47.4281772265  78.5049910691
O  43.4731725263  47.3021152854  77.3900448450
N  43.2080651940  48.5244940434  79.2687572981
C  43.7976351934  49.7155890872  78.7089572202
C  45.2506983228  49.6168471058  78.2659112662
O  45.6187268532  50.1654620160  77.2547763783
N  46.1338491755  48.9075264931  79.0373084290
C  46.0042953943  48.5815494469  80.4216602834
C  46.0915298009  49.7814142633  81.3653775265
O  45.9472667341  50.9209602271  80.9871760622
N  46.3309593110  49.4324676314  82.6540879066
C  46.1790486255  50.3471229506  83.7549692709
C  44.7675707739  50.3617385300  84.3308786019
S  44.2582931073  48.6869499454  84.8540567395
Ni  42.5379066365  47.9310706604  83.4836670781
H  40.9589322841  44.8820005440  85.3283332688
H  39.8604671616  46.3094675751  86.7305886524
H  41.5288080604  46.6685990948  87.1003922306
H  42.4415131881  49.0726513043  85.9557216544
H  38.3019299987  48.3155419941  85.6187744338
H  41.3382658214  51.2304439021  85.3213673536
H  39.0083577862  47.3569186392  82.0085639121
H  39.7117162515  49.6548485389  81.1744321209
H  39.5203313140  49.4919534815  82.9096210437
H  41.9932829791  46.1293172187  81.2381094482
H  42.8947450960  45.4281350713  79.2226400538
H  41.4598322774  45.9967380688  78.3959369137
H  42.7022858813  48.6476093771  80.1367830908
H  43.2428843143  50.0538539186  77.8324606123
H  43.7265277611  50.4979198507  79.4666238637
H  47.0787253734  49.0010160308  78.6982589098
H  45.0499605904  48.0844423301  80.6052601919
H  46.7796089886  47.8536940226  80.6760941658
H  46.2905482667  48.4548817607  82.8924593094
H  46.8915980926  50.0718108902  84.5346260681
H  46.4416794250  51.3463976844  83.4080408346
H  44.7522716627  51.0227391914  85.2000794658
H  44.0632076761  50.7538534878  83.5964725782
H  38.8596071549  50.7461814603  85.0923942784
H  42.8753052099  45.3444479236  84.1480817609
H  43.1695287387  46.1306811496  85.5325664483