82
charge=0, multiplicity=1, basis=def2-QZVPP, AUX_BASIS_CORR=rimp2-def2-QZVPP, mem_total=700000, SCF_ALGORITHM=GDM, xc_grid=000099000590, num_basis=3680, num_pairs=2713180, num_threads=128
C  3.6838380121  5.1528040470  -0.4292989918
C  2.6094278427  4.2006187859  -0.0354449417
N  1.2776950155  4.3799229927  -0.3287749818
C  2.6529964382  3.0087844906  0.6243081070
C  0.5887044202  3.3217242382  0.1399107212
N  1.3985925632  2.4734156162  0.7157469672
C  -2.6832459900  1.2304980025  3.8302439649
C  -2.0109158539  0.8353481950  2.5495150900
O  -0.8580797492  1.2873281508  2.3974817205
O  -2.6354865213  0.0890345709  1.7556724114
C  3.3174033345  1.2021803414  -1.9745487334
O  2.2338910265  0.6749116890  -2.0714256859
O  4.2253542162  0.8981235723  -1.0745211896
C  -1.6967330384  3.1410739612  -2.5685809346
C  -2.2284612120  1.9211267020  -1.8618358369
O  -2.2656215795  0.8320676036  -2.4703898848
O  -2.5282877717  2.0400380795  -0.6461680079
C  4.1705149755  -0.0970789919  3.4368989747
C  3.1783175662  -0.1170649700  2.2890355599
O  1.9916424206  0.1542814869  2.6283003824
O  3.5505367316  -0.3640555644  1.1337625453
C  -8.1014319914  -0.8899859834  -0.2928980078
C  -6.6451343986  -0.7684894634  -0.6169667638
N  -6.1727921903  -0.8376401027  -1.9064695726
C  -5.5241140458  -0.5636078229  0.1387006393
C  -4.8387582292  -0.6706348482  -1.8886156863
N  -4.4142654427  -0.5049197976  -0.6647888269
Zn  -2.3320762026  0.0082216100  -0.2278012794
Zn  0.5999353976  0.5164219953  1.3086604478
C  0.2921112372  -2.6584894677  0.6558846945
C  0.1338523143  -4.1484946606  0.9714223194
N  -0.0752089922  -1.7827669372  1.7571180684
O  -1.7847644571  -2.1554475938  -0.4585003292
O  -0.2986745079  0.1540614646  -0.3549926926
H  -8.6884732279  -0.1017107353  -0.7669671839
H  -8.5095285340  -1.8519068789  -0.6075828517
H  -5.4454766745  -0.4482080211  1.2067161222
H  -6.7314696216  -0.9742357284  -2.7305383801
H  -4.2253421177  -0.6488467040  -2.7731009853
H  4.6533050777  4.7431518296  -0.1532454046
H  3.6970924487  5.3342531671  -1.5058423065
H  3.5835252876  6.1200127359  0.0672927001
H  3.5201289296  2.5090266849  1.0204100257
H  -0.4809435753  3.2042324005  0.0457535158
H  -2.0661101768  0.9383059743  4.6799856231
H  -3.6718370042  0.7902970312  3.9380651359
H  -0.6048340582  3.0893794905  -2.5660066030
H  -2.0018998321  4.0634110167  -2.0772763286
H  3.7719985683  -0.6226311052  4.3033472695
H  5.1277920569  -0.5301960679  3.1557969029
H  0.4140079372  -4.7723621114  0.1222546584
H  -0.9009552428  -4.3805758084  1.2255118254
H  0.4296224875  -2.0550217270  2.5917004207
H  -1.0648568475  -1.8794407104  1.9586297375
H  -2.7770435493  2.3161677326  3.8731820994
H  4.3369446256  0.9364858941  3.7462358583
H  -8.2496700043  -0.8074512046  0.7814967879
H  -2.0065445317  3.1695087110  -3.6125011379
H  3.8822234969  0.3167732648  -0.3433871613
H  0.1335584562  0.4413098288  -1.1646415926
H  1.3407113215  -2.4537178407  0.4192059581
C  -0.5696271515  -2.3465251408  -0.5582330583
H  0.7662527132  -4.4271438306  1.8155956450
C  3.7970070360  2.2861049681  -2.9105550058
H  2.9752153758  2.6499429083  -3.5210627138
H  4.5721353445  1.8932508930  -3.5710809624
H  4.2394689370  3.1112303809  -2.3557632209
N  0.0504710508  -2.4382895606  -1.7356129298
H  1.0562497155  -2.4710531496  -1.7402662378
C  -0.6232775961  -2.1565151461  -2.9742077160
H  -1.2167252708  -1.2439677616  -2.8699511904
C  0.4015339202  -1.9183008947  -4.0809224023
C  -1.5519558311  -3.2962842797  -3.3689974920
H  1.0229309758  -2.8001458596  -4.2470223484
H  -0.0909334115  -1.6727283078  -5.0207480671
H  1.0433513600  -1.0777092276  -3.8177738542
O  -1.4714554108  -4.3932717096  -2.8873260478
C  -2.5556596079  -2.9640815266  -4.4511458524
H  -2.2192394650  -3.3766173393  -5.4043411841
H  -3.5136247001  -3.4277976137  -4.2202967169
H  -2.6931838206  -1.8908874735  -4.5809091136
H  0.8766607397  5.1675160645  -0.8074311416