82
charge=1, multiplicity=1, basis=def2-QZVPP, AUX_BASIS_CORR=rimp2-def2-QZVPP, mem_total=700000, SCF_ALGORITHM=GDM, xc_grid=000099000590, num_basis=3855, num_pairs=2918845, num_threads=128
C  -5.8689943087  1.7443894292  0.5267013594
C  -5.1603659837  0.5850129982  0.5552799950
C  -3.8744705402  2.0579946796  -0.3381020309
N  -3.9237428916  0.7950488736  0.0120647933
C  -4.8351277482  -4.1547656218  -1.4207459892
C  -4.2102330332  -3.4162910406  -0.4671699789
C  -3.8510810227  -2.4248194645  -2.3463914295
N  -3.5984382662  -2.3388309732  -1.0626894249
N  -1.3073199025  1.2013241584  -3.7760354021
C  2.1056699787  3.9575089691  -1.7115619826
N  1.9510134779  2.7766174453  -1.0383627451
C  3.4119857132  4.1069924872  -2.0635996655
C  3.1380778499  2.2157915470  -0.9900199461
C  0.1735428747  4.7021863225  2.8552712045
C  0.6206140198  4.2037350507  1.6751150193
C  -0.9180392212  2.8592838179  2.3636994648
N  -0.0690990602  3.0539956920  1.3774408093
C  -2.9016864177  -0.9700392863  2.7947702078
O  -2.0768904669  -0.0502176043  2.9850344704
O  -3.1336372097  -1.5086570096  1.6773174622
Zn  -2.4941724482  -0.7638891150  -0.1647197896
Zn  0.2713751776  1.7937338505  -0.2267875030
C  -1.3795689045  0.9991317786  -2.4396783866
O  -1.8285061975  -0.1020629484  -2.0310192703
O  -1.0037472580  1.9655579448  -1.6978745989
O  -0.7996645616  0.0403267323  0.8462772709
C  5.4327849952  -0.7234039388  -1.1942899182
C  4.6724762068  -1.5819204375  -1.9733025253
C  5.0751388726  -0.4394410809  0.1172278574
C  3.4854151336  -2.0745524816  -1.4680843956
C  3.9022173702  -0.9605653718  0.6236900132
C  3.0599219253  -1.7317467369  -0.1850666950
O  -0.5088027361  -2.0506872238  -0.1202499504
O  1.2614231595  0.1073325784  -0.2421891761
C  -0.2263565304  -3.1414606171  -0.9890428550
H  0.3396878861  -3.9252297068  -0.4925695909
H  -1.1927387592  -3.5396492847  -1.2891532517
H  0.3066136625  -2.8151106183  -1.8816438834
O  0.7060007100  -1.1843890562  2.1511416140
P  0.5653024514  -1.0105570750  0.5545680558
O  1.8643906568  -2.1465143799  0.2404912984
C  1.2711148638  -2.2825938743  2.8463119936
H  0.8723475433  -3.2374062729  2.5034259742
H  2.3581360693  -2.3121038440  2.7746860256
H  0.9938212711  -2.1476614067  3.8898950978
N  6.5710177208  -0.0516788651  -1.7852284800
O  6.8693708866  1.0340945901  -1.3247017057
O  7.1286713694  -0.5795764142  -2.7108884137
C  -3.6891529902  -1.4738629995  3.9835049658
H  -4.7411924740  -1.2044647850  3.8733418311
H  -3.6483954789  -2.5616730802  4.0351989315
H  -3.3194133769  -1.0561754949  4.9155969505
C  -0.8018129945  2.4008860205  -4.4094390185
H  0.1769037387  2.6746011074  -4.0175911373
H  -0.6980891526  2.2104578008  -5.4747371357
H  -1.4747055650  3.2501854679  -4.2818809518
H  -5.4609566613  -0.3780034770  0.9301803112
H  -3.0346067567  2.5519585039  -0.7986832036
H  -4.1572381449  -3.5754926758  0.5953693624
H  -3.5082946540  -1.7333905694  -3.0972119888
H  -1.6154160275  0.4460483691  -4.3611284684
H  3.9250851890  4.8886706793  -2.5951259567
H  3.3654866264  1.2621820169  -0.5469228345
H  1.3915196344  4.5910268416  1.0313780790
H  -1.6064015912  2.0371980671  2.4750021002
H  4.9775547825  -1.8235814548  -2.9815969584
H  5.6956543751  0.1970831645  0.7325481770
H  2.8555602997  -2.7011406557  -2.0847406983
H  3.6112103590  -0.7246428971  1.6388278727
N  -4.5964837291  -3.5084714020  -2.6038465490
H  -4.9255786109  -3.7936223244  -3.5102216695
N  -0.8008314592  3.8361626511  3.2692679922
H  -1.3204875999  3.8911866230  4.1289241034
N  4.0459261111  2.9903903262  -1.5929178659
H  5.0261135893  2.7633231319  -1.6768648505
N  -5.0326302242  2.6663190141  -0.0415181282
H  -5.2472162669  3.6328912536  -0.2160648940
H  -5.4143872436  -5.0588946346  -1.3587884982
H  0.4633504746  5.5708296635  3.4193870224
H  1.2786837923  4.6200722728  -1.9046447885
H  -6.8658957841  1.9838785094  0.8515365433
H  -1.1915143589  0.0288132462  1.8026682332