58
charge=2, multiplicity=3, basis=def2-QZVPP, AUX_BASIS_CORR=rimp2-def2-QZVPP, mem_total=240000, SCF_ALGORITHM=GDM, xc_grid=000099000590, num_basis=2744, num_pairs=1623241, num_threads=64
N  -0.0732173830  -4.4990165479  -2.7503435966
H  0.5578342170  -4.9703643374  -3.3764921895
C  -0.0677100239  -3.1641920118  -2.4667749740
N  -1.6913332342  -4.1707902964  -1.3267016773
C  -1.0814922837  -2.9729885893  -1.5827326572
H  -1.4002866446  -2.0521613926  -1.1248429923
C  -1.0607499702  -5.0703561584  -2.0443631051
H  -1.2771312980  -6.1254096436  -2.0703119053
N  -1.4191337030  -7.6250625553  2.5588424813
H  -1.4899107335  -8.4114651820  3.1824641616
C  -0.2578600417  -7.0666379628  2.1069019781
N  -1.9991728384  -5.9483360443  1.2914726111
C  -0.6335836855  -6.0245193700  1.3226520668
H  -0.0032678809  -5.3278001764  0.7960264250
C  -2.4422658824  -6.9226783595  2.0463797401
H  -3.4768365145  -7.1518657394  2.2413612765
N  -6.0797567274  -2.8934824713  2.2156642500
H  -6.5053144589  -2.5963894461  3.0783999175
C  -6.5518529373  -2.6432310323  0.9591629955
N  -4.6322643984  -3.7602328576  0.8357267965
C  -5.6400808791  -3.1863455330  0.1097144444
H  -5.6398858117  -3.1779022143  -0.9672142921
C  -4.9246639310  -3.5643297130  2.1003240803
H  -4.3323270417  -3.8771023145  2.9448049409
N  -7.7340683231  -9.7713360076  1.1962750614
H  -7.6252762710  -10.5937923588  1.7675196232
C  -8.8870840011  -9.0584840027  1.0349240027
N  -7.2604407649  -8.1527545240  -0.1769722631
C  -8.5792618693  -8.0522859753  0.1745890917
H  -9.2210322134  -7.2774877276  -0.2091142144
C  -6.7787705252  -9.2013899218  0.4533992638
H  -5.7710198718  -9.5770438926  0.3869069548
N  -4.9038661392  -10.0782453522  -4.2996198395
H  -4.2246744985  -10.4955757742  -4.9150172681
C  -6.0882489994  -10.6402130013  -3.9171850011
N  -5.8675457926  -8.6295788738  -2.9873935048
C  -6.6786038122  -9.7267695901  -3.1032606918
H  -7.6304970978  -9.7962087886  -2.6037010914
C  -4.8073297234  -8.8730541548  -3.7202892488
H  -3.9639216176  -8.2156434261  -3.8535992784
N  -8.6710915485  -5.0322111778  -4.0787323530
H  -9.0670322972  -4.9029993274  -4.9961720495
C  -8.9098250006  -4.2476449942  -2.9865430018
N  -7.5057183960  -5.8907708214  -2.4559159094
C  -8.1786647516  -4.7950700956  -1.9793798471
H  -8.0939378642  -4.4691261592  -0.9564027674
C  -7.8259634693  -6.0066348660  -3.7260437669
H  -7.4721918823  -6.7685422684  -4.4008885250
Cu  -6.1925233848  -7.0827324079  -1.5178652568
Cu  -2.9810924765  -4.5739032797  0.1459021829
O  -4.4023120526  -7.2068246502  -0.7220660942
O  -4.3577827454  -6.2321480995  -1.5366685802
H  0.6338061905  -2.4783085468  -2.9083149021
H  0.7121876547  -7.4403033666  2.3846289213
H  -7.4556241925  -2.0866807149  0.7816527734
H  -9.8068808802  -9.3178131264  1.5291237575
H  -6.4065556612  -11.6112424560  -4.2542192761
H  -9.5644369218  -3.3943703499  -3.0139535118