116
charge=1, multiplicity=1, basis=def2-QZVPP, AUX_BASIS_CORR=rimp2-def2-QZVPP, mem_total=700000, SCF_ALGORITHM=GDM, xc_grid=000099000590, num_basis=5074, num_pairs=4131787, num_threads=128
C  -1.1057860158  -4.9273788857  -0.2459730900
S  -1.4359442913  -3.2227096478  -0.7527631363
N  -1.4340964605  -3.4897475379  -4.0959196832
C  -0.0356152608  -3.0909076546  -4.0560024701
C  0.1370968356  -1.5843066015  -3.9905595527
S  -0.4071797257  -0.8278683929  -2.4639024227
C  0.8194121179  -3.9053731346  -3.0685369563
O  1.0022001450  -5.0759453952  -3.3652693178
O  0.1274618774  0.5822882634  -2.5627893131
O  -1.9080950674  -0.8097800990  -2.4856195843
N  1.3811233082  -3.2977280688  -1.9889977920
C  2.3032852025  -4.1646466466  -1.2501677651
C  2.3184853636  -3.7929146269  0.2178473098
O  3.1800126471  -4.2043696858  0.9998875414
C  3.6871865458  -4.1570602632  -1.8946572094
O  4.1137799975  -2.8361614603  -2.2001643512
N  1.2697265971  -3.0681762560  0.5791764168
C  1.1194802360  -2.7453726386  1.9791658663
C  -0.2607787972  -2.1348926563  2.1603677162
S  -0.5514118516  -0.8991180474  0.8646093271
C  1.2658237869  -3.9824173714  2.8758108925
O  0.4738732654  -4.8814969298  2.8746186577
O  0.3105387727  0.3741598823  1.4291043801
C  -5.7149999954  6.6519999645  1.0189999848
C  -4.4395613033  6.1005825905  0.3927930823
C  -3.9246726523  7.0180003854  -0.7098109971
C  -3.3680178063  5.8701736378  1.4537791267
C  -3.9800000216  1.7100000250  -2.2639999979
N  -2.5908954766  2.0268476385  -2.0205582717
C  -2.1069997130  2.3090033820  -0.8155279860
N  -2.9428302256  2.6730763690  0.1667675005
N  -0.8063211623  2.2344464132  -0.6027534964
C  9.9529999978  1.7949999984  -2.3369999966
C  8.8325821301  0.9027350395  -1.8813688670
C  7.9492086760  0.3200271571  -2.7841354904
C  8.6676536876  0.5895354996  -0.5343150473
C  6.9394452502  -0.5377629561  -2.3728033973
C  7.6663601447  -0.2630196138  -0.1030890730
C  6.7900485001  -0.8310504735  -1.0229172768
O  5.8066040841  -1.6253194218  -0.5497479750
C  -7.0969999808  -1.6609999899  -3.3449999905
N  -6.3820650936  -2.0195397836  -2.1391392693
C  -5.0475643828  -2.0205586112  -2.0209817477
N  -4.2757826792  -1.8941819437  -3.0826233232
N  -4.5030649355  -2.1026800617  -0.8133922214
Co  0.4881143723  -2.0618153223  -0.7976133543
O  2.8400465088  0.2226507744  1.9746391229
O  4.4772201356  -1.7836318373  1.8680725432
H  4.4180107077  -4.5990707685  -1.2177646146
H  3.6617507967  -4.7575175270  -2.8072104464
H  3.3312658586  -2.3826087299  -2.5379560726
H  1.9660510320  -5.2092554289  -1.2711846869
H  -5.5299391221  7.6237034838  1.4807362586
H  -6.1047562660  5.9906988653  1.7943770937
H  -4.6868784343  5.1331223318  -0.0686902847
H  -3.6653425225  7.9991254241  -0.3074514710
H  -3.0307430040  6.6136744523  -1.1876692853
H  -4.6754151994  7.1717718703  -1.4857181902
H  -3.1186454010  6.8043197213  1.9601222011
H  -2.4412603168  5.4915860181  1.0158214781
H  -3.7028032015  5.1710845788  2.2242198661
H  -4.3562072902  0.9636512889  -1.5626654087
H  -4.0575575021  1.3017150365  -3.2659984601
H  -1.9241596710  1.6031265251  -2.6517216018
H  -0.4395067649  2.2720625761  0.3347394498
H  -0.2519243230  1.6863823736  -1.2783400703
H  -2.5618629169  3.0255155056  1.0279740351
H  -3.8590385748  3.0213121252  -0.0574748071
H  10.8797704996  1.2323227298  -2.4637628314
H  9.7297906256  2.2657961859  -3.2942790132
H  8.0493698744  0.5347392582  -3.8416433871
H  9.3436987047  1.0144180410  0.1986843510
H  6.2714007693  -0.9761366552  -3.1045792237
H  7.5643939937  -0.4983811244  0.9494620024
H  5.2472729940  -2.0364710518  -1.2485770216
H  -6.6828797213  -0.7526986631  -3.7809430211
H  -7.0861586473  -2.4540309755  -4.0953661718
H  -6.9180205733  -2.3824949260  -1.3699451291
H  -4.6171030842  -2.1081549064  -4.0030252531
H  -3.2716731471  -1.6709356780  -2.9790038493
H  -5.0691278019  -2.0479474528  0.0139982467
H  -3.5175202016  -2.3598976237  -0.6983311137
H  -0.6914505737  -4.9912606412  0.7549001513
H  -0.4345311529  -5.4128542162  -0.9510051913
H  -1.7733965502  -3.5826824823  -3.1434021264
H  -1.4817269598  -4.4158511252  -4.5004292751
H  0.3848755145  -3.3590990302  -5.0299177792
H  1.1900636020  -1.3176287759  -4.0926083627
H  -0.4267151453  -1.0943647788  -4.7873633754
H  1.8684899163  -2.0231005716  2.3160243770
H  -0.3893817200  -1.6357229654  3.1216249391
H  -1.0438914982  -2.8830414464  2.0462584999
H  2.1191884712  -3.9626564616  3.5731825945
H  3.0221357815  0.6282189873  2.8257533676
H  3.4381349831  -0.5835358319  1.9185645425
H  4.1036260204  -2.6776008578  1.7930922485
H  5.0556774626  -1.7049844299  1.0893961634
H  -4.6108007092  2.5998219139  -2.2237329179
H  -8.1332634126  -1.4621522602  -3.0879852671
H  10.1554578890  2.5885601951  -1.6176212366
H  -2.0575502238  -5.4570094094  -0.2668863731
H  -6.4994150296  6.7884472880  0.2738201086
H  1.2946295894  0.2067186110  1.5779121819
C  5.5861035220  2.3949101973  -1.0195338443
C  4.6820678758  1.4515869276  -0.5688003276
C  3.6963235159  0.9890177556  -1.4386029770
C  3.6017297998  1.4779086514  -2.7450471136
C  4.5159156220  2.4180159311  -3.1793047684
C  5.5101426031  2.8692354994  -2.3202679249
H  6.3698128155  2.7395715042  -0.3608037280
H  4.7373697464  1.0733541423  0.4401310585
H  2.8115382915  1.1297906493  -3.3965947239
H  4.4559129626  2.7980838976  -4.1896940343
H  6.2334477415  3.5937687021  -2.6687037657
C  2.7732371870  -0.0185523072  -1.0536550235
N  1.9949650821  -0.8373757023  -0.8566075204