82
charge=0, multiplicity=1, basis=def2-QZVPP, AUX_BASIS_CORR=rimp2-def2-QZVPP, mem_total=700000, SCF_ALGORITHM=GDM, xc_grid=000099000590, num_basis=3680, num_pairs=2783643, num_threads=128
C  5.2875949826  -0.1628499735  3.3977229841
C  4.1167452646  -0.7004332564  2.6583210065
N  2.8963789430  -0.9610173686  3.2321005401
C  3.9495243328  -0.9985950134  1.3429630919
C  2.0516596438  -1.3746220455  2.2742123730
N  2.6664438848  -1.4169986580  1.1207602135
C  -0.9783439969  -4.9068230023  -0.1095049990
C  -0.8155259393  -3.4125176370  -0.2710887072
O  0.3314083956  -2.9541285914  -0.1162481865
O  -1.8465022480  -2.7350171192  -0.5187620046
C  2.6946630881  2.5146940453  0.9002291054
O  2.0893892292  1.5273669146  1.3931216863
O  2.2841282833  3.1717690228  -0.0826863808
C  -0.7643090009  0.8078329964  3.4773219989
C  -1.4639962127  0.4190742893  2.2090832631
O  -1.9746309068  1.2971381591  1.4933683698
O  -1.4478639041  -0.8100735827  1.8976785856
C  5.0267030019  -2.3635280009  -2.8321339997
C  3.8107571153  -1.9278743946  -2.0586685812
O  2.9597009760  -2.8149788077  -1.7638391686
O  3.6827698834  -0.7382168827  -1.7177841083
C  -7.4967879980  -2.0836250029  0.5173300012
C  -6.1951699720  -1.3758455978  0.4110778404
N  -6.0228710615  -0.0636592233  0.7816983097
C  -4.9614022836  -1.7812046873  -0.0000862333
C  -4.7353319369  0.2711363387  0.5998690348
N  -4.0711864262  -0.7491277304  0.1223621987
Zn  -1.9964780643  -0.8259382111  -0.0001169476
Zn  1.6918111309  -1.6148011347  -0.7175399283
C  0.7686549523  0.7091116014  -2.4332832161
C  0.1992418893  1.3225432759  -3.7059367792
N  0.8807834157  -0.7498379946  -2.5784644158
O  -1.2967666908  0.3557641866  -1.3467768006
O  0.5845050558  0.2006981762  -0.1091609308
H  -7.8555355376  -2.1242524417  1.5472879992
H  -8.2725131442  -1.6128027693  -0.0891970487
H  -4.6547062920  -2.7479350203  -0.3627429987
H  -6.7348758867  0.5432227981  1.1495949928
H  -4.3121343270  1.2300964224  0.8488936765
H  6.1344481395  -0.0675641933  2.7213089819
H  5.0865697030  0.8275605989  3.8105244302
H  5.5968360224  -0.8120573004  4.2192997335
H  4.6609620563  -0.9016135792  0.5417384771
H  1.0117883389  -1.6088531727  2.4422700826
H  -1.9436899475  -5.2554989615  -0.4680905841
H  -0.8946543883  -5.1579537094  0.9493411996
H  0.2559691073  1.1065484885  3.2233543673
H  -0.7163395172  -0.0154621092  4.1882792707
H  5.5555048596  -1.5170438393  -3.2639414897
H  5.7125475005  -2.8857960493  -2.1617706581
H  0.2759193514  2.4075948171  -3.7349564870
H  -0.8454052588  1.0443747350  -3.8469493967
H  1.5098340457  -0.9721779049  -3.3407220876
H  -0.0328009949  -1.1227126795  -2.8227146904
H  -0.1791227071  -5.4357635530  -0.6257373993
H  4.7611343975  -3.0699659775  -3.6176243343
H  -7.3894824846  -3.1086924088  0.1695397670
H  -1.2409766235  1.6669452425  3.9457769204
H  0.8533152114  2.6564511177  -0.4061359556
H  1.2012146045  0.7900220609  0.4927383492
H  1.7739255781  1.0970344275  -2.2487048518
C  -0.0961253534  0.8554060302  -1.1516861313
H  0.7620380732  0.9624201533  -4.5692563775
C  4.0236220221  2.8915229791  1.5374610166
H  3.9514594386  2.8545332364  2.6237645254
H  4.3572067154  3.8786289857  1.2265828313
H  4.7748429430  2.1595345898  1.2355859103
N  -0.1544120136  2.3200272785  -0.6293485580
H  -0.6636474489  2.2437790998  0.2668638115
C  -0.7808164281  3.4071615804  -1.4000810519
H  -0.1894269713  3.5666032329  -2.3000672364
C  -2.2400362017  3.1625832509  -1.7675679241
C  -0.7136809786  4.6846179554  -0.5536728383
H  -2.8220129404  2.9368486864  -0.8756586159
H  -2.6576786761  4.0561342241  -2.2344189103
H  -2.3465870330  2.3330819156  -2.4589363904
O  -0.8853160884  4.6540493031  0.6341062345
C  -0.4435163977  5.9469070662  -1.3222201205
H  -0.9776062211  5.9683901281  -2.2731816080
H  -0.6977904658  6.8278785848  -0.7381661964
H  0.6239233978  5.9797618436  -1.5553960125
H  2.6474493940  -0.7994169658  4.1919001431