58
charge=2, multiplicity=3, basis=def2-QZVPP, AUX_BASIS_CORR=rimp2-def2-QZVPP, mem_total=240000, SCF_ALGORITHM=GDM, xc_grid=000099000590, num_basis=2744, num_pairs=1575214, num_threads=64
N  -0.0046186033  -4.4696108354  -2.6882512527
H  0.6619495798  -4.9341642785  -3.2824131088
C  -0.0619580508  -3.1275180504  -2.4492619747
N  -1.6801388530  -4.1643325147  -1.3251437908
C  -1.1118120379  -2.9502331119  -1.6052606773
H  -1.4832404262  -2.0279620667  -1.1919091008
C  -0.9893987717  -5.0588772549  -1.9939466595
H  -1.1560354851  -6.1233863436  -1.9921287162
N  -1.3940508557  -7.4568233950  2.7365675570
H  -1.4729136221  -8.1648573572  3.4476741002
C  -0.2419359599  -7.0811199789  2.1073890079
N  -1.9394561962  -5.8482670477  1.3706007774
C  -0.5950309911  -6.0784407888  1.2645570506
H  0.0413178839  -5.5061465886  0.6111444430
C  -2.3908374841  -6.6900645989  2.2683970073
H  -3.4123618448  -6.7732917557  2.6022954779
N  -5.9386527516  -2.5862766645  2.1994565641
H  -6.3166539717  -2.1535054106  3.0262252924
C  -6.5298100006  -2.6214059990  0.9695989977
N  -4.5478529424  -3.6259444498  0.8831267560
C  -5.6535213098  -3.2697881600  0.1586614491
H  -5.7512258037  -3.4891945362  -0.8910560982
C  -4.7504832360  -3.1987008519  2.1088105730
H  -4.0718847984  -3.3028283939  2.9397479570
N  -7.6959977227  -9.8106090629  1.2839398260
H  -7.5361517018  -10.6346294415  1.8397356636
C  -8.8675509806  -9.1142509899  1.2057349774
N  -7.3343851546  -8.1677103084  -0.1045265147
C  -8.6270743937  -8.0928524634  0.3426648265
H  -9.3074008009  -7.3235191924  0.0185743542
C  -6.8017727699  -9.2156713575  0.4806410085
H  -5.7971483360  -9.5797093506  0.3405329451
N  -4.9987982763  -10.0576991446  -4.4007122320
H  -4.3774541283  -10.3772285252  -5.1255518825
C  -6.0262119969  -10.7719010037  -3.8560120051
N  -5.9176438356  -8.7631354013  -2.9061096967
C  -6.5890035796  -9.9569387361  -2.9292205564
H  -7.4356988596  -10.1624534001  -2.2958991507
C  -4.9681590462  -8.8552360973  -3.8056903383
H  -4.2515817405  -8.0898164474  -4.0547338003
N  -8.3940370911  -4.5176874833  -4.2043828421
H  -8.6550336489  -4.2060628878  -5.1258019417
C  -8.9066990107  -4.0542609839  -3.0277920020
N  -7.3926304817  -5.6344179317  -2.6229317864
C  -8.2738112680  -4.7544026420  -2.0511563743
H  -8.3985822769  -4.6784685005  -0.9839951925
C  -7.4926067634  -5.4669927680  -3.9224156278
H  -6.9474555482  -6.0093239699  -4.6772954032
Cu  -6.6822513852  -7.2605530726  -1.7785728792
Cu  -2.9132528264  -4.4833405678  0.2225940580
O  -4.0564228962  -6.8501097394  -0.9950927821
O  -3.5059157233  -7.8686050554  -0.7188730648
H  0.6247303354  -2.4274935622  -2.8919503050
H  0.7096573441  -7.5362168309  2.3199238889
H  -7.4901061443  -2.1765174785  0.7765552424
H  -9.7483469579  -9.3929046798  1.7572167089
H  -6.2671747241  -11.7727985030  -4.1690039445
H  -9.6584718792  -3.2856248970  -2.9856363204