116
charge=-1, multiplicity=1, basis=def2-QZVPP, AUX_BASIS_CORR=rimp2-def2-QZVPP, mem_total=700000, SCF_ALGORITHM=GDM, xc_grid=000099000590, num_basis=5135, num_pairs=3933972, num_threads=128
C  6.4492790017  -0.4957189969  4.8693920012
C  6.0634359849  -1.9376704572  4.6413619206
O  6.3125002788  -2.8034144226  5.4557734381
N  5.4215534749  -2.1558396376  3.4734263027
C  4.7642060162  -3.3978800168  3.1543250071
C  3.2597369868  -3.3021259028  3.3298135930
C  2.5954544270  -2.3066373112  2.3912909518
O  3.2350278975  -1.7219505042  1.5242589878
O  1.3343916438  -2.1918687051  2.6154578508
C  -5.2795841546  -1.9489619883  -1.5792330005
C  -4.1074641105  -1.6255250858  -0.6545106052
S  -2.5998665189  -1.2701548523  -1.6130399379
C  8.4372629999  0.3494969968  -3.1123050060
C  7.3262486654  -0.3236457439  -2.3723595017
C  7.1230555787  -0.3478211420  -1.0220152498
C  6.2461352970  -1.0747751189  -2.9461167732
N  5.9975773751  -1.0701185644  -0.7227938120
C  5.4363717438  -1.5216028479  -1.8833842580
C  5.8717994704  -1.4010212193  -4.2542472241
C  4.2750319114  -2.2618833935  -2.0794983624
C  4.7190412637  -2.1331488502  -4.4567339964
C  3.9223480128  -2.5537229987  -3.3788519982
C  2.4866660337  6.1735120805  -1.1792559594
C  1.7114449262  5.7909509155  0.0720797857
N  0.8198264230  4.6877861375  -0.2080453900
C  -0.4753056616  4.6107846544  0.0606975166
N  -1.0163558405  5.4503676022  0.9776001478
N  -1.2532671130  3.7958725121  -0.6077680780
C  -2.6287260381  1.1072109872  4.9403359694
C  -3.7475003337  0.6771823756  4.0088943202
O  -4.7977999274  1.6075866762  4.1870613700
C  -3.2504317945  0.6155153751  2.5849957736
S  -2.0115014152  -0.5639990495  2.2451893857
C  -3.7569763554  1.4040237898  1.6205817499
S  -3.1120483992  1.3972976852  0.0166481972
C  -4.9807065140  2.2345626519  1.8820109640
C  -5.6883662146  1.6943890225  3.1102113304
C  1.5149739794  3.2187419429  -3.4994290441
C  2.1867568180  2.1711616033  -2.6228785970
O  3.3444564865  2.7827279600  -2.0847610504
C  1.2699337954  1.6617676556  -1.5306019273
S  -0.2969044514  1.0678121074  -2.0140284126
C  1.6579437535  1.6805236989  -0.2420633088
S  0.5541927168  1.2628885880  1.0568478131
C  3.0791719674  1.9702749507  0.1537115568
C  3.9484563279  1.9906845569  -1.0902009007
W  -1.1578975790  -0.1853495380  0.0931590356
O  1.4904721511  -1.4467801446  -0.9822465173
C  -0.3175649455  -1.9615682561  0.5870493913
C  0.1710948896  -1.7715195666  -0.7122661800
C  -5.4956683215  -3.4620124514  -1.8173271145
O  -6.5333298299  -4.0145579416  -1.5083426008
N  -4.4783946498  -4.1247710299  -2.4078778373
N  -6.5125911288  -1.3833242299  -1.0735088347
C  -7.5437524922  -1.0523898896  -1.8949222151
O  -7.4462114510  -0.9963830959  -3.1017057025
C  -4.5900599919  -5.5334259976  -2.7369609981
C  -8.8588948569  -0.7315480136  -1.1963869742
H  5.8172703100  -0.0772815757  5.6535803330
H  3.0106899591  -3.0492299607  4.3635522952
H  2.8005368288  -4.2781525767  3.1456413108
H  5.1712195148  -4.1673667691  3.8071571868
H  5.1451962611  -1.3643586810  2.9174791403
H  8.0566088247  1.0964490386  -3.8122388985
H  9.0261550094  -0.3645659400  -3.6922162376
H  7.7137424524  0.1020095893  -0.2389658150
H  5.5883497109  -1.1984057746  0.1862729046
H  6.4697680766  -1.0751403753  -5.0969444571
H  4.4128237318  -2.3778343863  -5.4658606147
H  3.6469426540  -2.5619233963  -1.2540331865
H  3.0068127218  -3.0972997360  -3.5665243120
H  3.0510470268  5.3242946807  -1.5635071366
H  1.8123007412  6.5164504755  -1.9631982011
H  2.4015802254  5.5182084138  0.8754507735
H  1.1246646861  6.6413009420  0.4211612074
H  1.2192190365  3.8560854119  -0.6422551761
H  -1.9973175608  5.3301149973  1.1662473261
H  -0.4639373677  5.6531832925  1.7931069177
H  -2.0692874102  3.3704052627  -0.1636768718
H  -0.8613280809  3.1236639016  -1.2840045328
H  -3.9075204540  -2.4326564956  0.0546487798
H  -4.3716430645  -0.7420402714  -0.0759041986
H  -2.2315237518  2.0742693723  4.6304478342
H  -1.8137973113  0.3859393230  4.9164245197
H  -4.0936761397  -0.3266956249  4.3059407280
H  -5.6415837758  2.1946557118  1.0118421226
H  -6.1338174521  0.7165349182  2.8730163074
H  1.1509312961  4.0663111608  -2.9172886482
H  0.6646213232  2.7838048536  -4.0208127423
H  2.4793068153  1.3151508222  -3.2507071216
H  3.4204629750  1.1838172304  0.8334528118
H  4.1015826332  0.9663170229  -1.4532237787
H  0.7145604715  -1.8634629783  1.7839651787
H  -2.9876373255  1.1879322892  5.9679969411
H  -4.7225675311  3.2893509320  2.0305993203
H  -6.4995372581  2.3552434233  3.4254997226
H  2.2189184802  3.5956705806  -4.2424346553
H  3.1894691508  6.9767031908  -0.9565739677
H  4.9331839877  2.4187977186  -0.8897909659
H  3.1627675306  2.9126865128  0.7123986026
H  7.4776056680  -0.4426571687  5.2226476809
H  6.3510931152  0.1350914309  3.9863387685
H  9.1189340763  0.8576361508  -2.4298815059
H  5.0068324140  -3.6804727587  2.1281436232
H  -5.0996508659  -1.4762415091  -2.5474210694
H  1.9364920105  -1.2364978614  -0.1530559227
H  -0.8399038080  -2.8245176267  0.9914610318
H  -9.5133065284  -1.6014312014  -1.2640346186
H  -8.7425719335  -0.4760652811  -0.1428659028
H  -9.3455387911  0.0948325763  -1.7091040683
H  -0.2570227341  -2.2604375363  -1.5847987776
H  -3.6062548995  -3.6397694841  -2.5634158074
H  -6.7382698895  -1.5983878069  -0.1164933904
H  -5.4537386407  -5.7170531763  -3.3755012249
H  -3.6916804419  -5.8349636712  -3.2704833283
H  -4.6896185791  -6.1552996253  -1.8458561582