89
charge=-2, multiplicity=1, basis=def2-QZVPP, AUX_BASIS_CORR=rimp2-def2-QZVPP, mem_total=700000, SCF_ALGORITHM=GDM, xc_grid=000099000590, num_basis=4112, num_pairs=3025231, num_threads=128
H  99.2923330014  151.2130269997  146.9388299900
C  98.1888161330  151.1193446963  146.9204605606
O  97.4739654273  152.0885845045  146.7843132116
N  97.7806404609  149.8508005945  147.0644965643
H  96.7995495774  149.6259293492  147.0612734133
H  98.4055975277  149.0686721052  147.1702475266
H  103.1525169392  141.1207770758  144.2783079604
C  102.7422560513  141.9261948095  143.5977084549
O  103.4771958344  142.6225174050  142.9258180311
N  101.3991689740  141.9896743539  143.6442485018
H  100.9529802924  141.3708072762  144.3250189792
C  100.5326802713  142.9765194127  143.0377644777
H  100.2888624157  143.7594443733  143.7645574165
H  100.9801080563  143.4947519117  142.1724390267
C  99.2336468916  142.3417351500  142.5280084825
O  99.1557667278  141.1774018564  142.1944313753
N  98.1995015329  143.2081654500  142.4088370671
H  98.2558615714  144.1477995172  142.7931930097
C  96.9662127627  142.8284950493  141.7650058281
H  96.4469117497  143.7590609875  141.5176161943
H  97.1765300065  142.3310430177  140.8022610068
C  95.9669071134  141.9948756069  142.6083216388
O  95.2638437342  141.1508238877  142.0952523569
N  95.8731922581  142.3665773846  143.9093024203
H  96.5057408192  143.0745084449  144.2589943050
C  94.9997695454  141.7855433379  144.9125000976
H  95.0055520423  142.4939825567  145.7466284047
H  93.9385249472  141.7036900038  144.6064220394
C  95.4863617193  140.4458293245  145.4903321057
O  94.7202775536  139.5996894576  145.9088302179
N  96.8362753614  140.3309930162  145.5719554745
H  97.3738858122  141.0576356899  145.1236130202
C  97.5310783530  139.0872134837  145.8246164369
H  96.9811568301  138.2776126028  145.3326679908
C  98.9305632314  139.1361895775  145.2062945087
H  98.8486260852  139.4659737437  144.1688122645
H  99.3191640241  138.1193189234  145.1931864243
S  100.1718772266  140.1472004146  146.0921019226
C  97.6794951789  138.6428495206  147.2832562191
O  98.0896204166  137.5215833639  147.5258521789
N  97.3605570004  139.5312953517  148.2405467312
H  96.9273874350  140.4039790984  147.9806491737
C  97.4983087056  139.2594016058  149.6519350932
H  97.3044594790  140.1991433163  150.1686931545
C  96.5240008825  138.1885529110  150.1237529606
H  96.8242315950  137.2113720684  149.7404344978
H  96.5294546909  138.1383720602  151.2148003263
O  95.1889934269  138.4757243368  149.7360878867
H  95.1794193041  138.5815982918  148.7737902341
H  98.5150709771  138.9599040358  149.9336370066
H  98.0136359797  146.2881880310  151.1829919817
C  97.7872538078  145.6719058500  152.0698999662
O  97.7168077303  146.1184621277  153.1985042197
N  97.6266418241  144.3906148243  151.7188583183
H  97.6722852151  144.1719165138  150.7338380063
C  97.2960550290  143.3461558483  152.6415373707
H  97.6469509147  142.3957697540  152.2424170168
H  97.7842040386  143.5272449482  153.5956499299
H  96.2192246359  143.2678858289  152.8186424673
H  93.2564928168  143.8616387051  152.4853907663
C  93.0158010904  143.1359552486  153.2719760104
H  93.9512526690  142.9144548336  153.8021602878
H  92.3514319378  143.6361260397  153.9816930138
O  92.3614957019  141.9919565373  152.7972399325
H  92.9175440141  141.5739956404  152.1316451497
H  93.2512921242  143.2265837295  148.4372648541
C  93.2367122971  142.6812433359  149.3758535800
H  93.3790927512  143.4046305261  150.1789866420
H  92.2856191035  142.1737850260  149.5267599448
C  94.3140424611  141.6471213070  149.4077972088
O  94.1376618215  140.7963769450  150.4220034647
O  95.2157016369  141.5591809030  148.6156677906
H  93.2114028378  146.0909609459  148.9204840505
C  94.0578128043  145.8854356636  148.2607819018
S  95.5027335903  145.4082509762  149.1269730628
C  94.0202920452  145.9254737064  146.9227398400
S  95.4188082161  145.4471245959  145.9684404078
H  93.1449831617  146.1876249732  146.3280430578
Cu  99.2459963657  141.9898399152  146.9488861846
S  98.2016642887  143.7094542764  146.0213164907
Mo  97.2576524400  145.2156363645  147.4851272051
O  98.1046583304  143.9705625141  148.8432142829
O  98.1462686531  146.6233383876  147.4373763662
C  98.8143902998  142.9274854049  148.6404042305
O  99.3191431154  142.1722563834  149.4219658754
H  94.6401719391  139.9526733513  150.2671748871
O  97.9181645792  145.9189814922  143.6467618033
H  98.3986576088  145.6955067449  144.4535633744
H  97.0146860403  146.0181712288  143.9701472717