101
charge=-1, multiplicity=1, basis=def2-QZVPP, AUX_BASIS_CORR=rimp2-def2-QZVPP, mem_total=700000, SCF_ALGORITHM=GDM, xc_grid=000099000590, num_basis=4510, num_pairs=3395551, num_threads=128
C  -0.9503619911  4.8250590078  -3.6248420346
C  -1.2560582504  5.0326163049  -2.1440127975
O  -1.0534093036  6.1092827199  -1.6146757025
N  -1.7771016966  3.9658030976  -1.4990067539
C  -2.2318970217  3.9797169606  -0.1188929441
C  -1.3402560379  3.2015139992  0.8445558206
C  -0.9961028799  1.7955577134  0.3548204735
C  -2.2402865575  1.0457052518  -0.1545908305
O  -3.1493199299  0.8440152315  0.6559633191
O  -2.2189887121  0.7365317612  -1.3797476257
C  -6.3064979962  -0.0679039562  3.6302509271
C  -7.0098202150  0.3654697086  2.3503196967
O  -8.2230961187  0.4909013492  2.3266859544
C  -4.9935364178  -0.8154102433  3.5064867606
O  -5.2132571285  -2.0443430045  2.8849954109
N  -6.2363519047  0.6826159691  1.2962766802
C  -6.8128519954  1.1998569750  0.0805930581
C  -7.2324570004  -2.4657969990  -2.3950719985
C  -6.7741417400  -2.2456732013  -3.6870786508
C  -6.4397727906  -2.0528218656  -1.3295849307
C  -5.5617771952  -1.6156528804  -3.9130739490
C  -5.2219390251  -1.4237609845  -1.5404677672
C  -4.7697591947  -1.1848963991  -2.8426845652
O  -3.6225454122  -0.5712779378  -3.1221048520
C  -3.7786479958  -4.7090289880  0.8090709970
C  -2.7825732275  -3.6088217692  0.8066197310
N  -2.6908066667  -2.7289975510  1.8502813540
C  -1.8787861983  -3.2651758086  -0.1549366318
C  -1.7589799953  -1.8722438758  1.5214145868
N  -1.2314803854  -2.1605105502  0.3228718445
C  2.7583449970  -0.5979039973  4.5632079952
C  1.7854900247  0.3499292002  3.8739126281
C  2.1300218643  0.5094867312  2.4099066936
S  2.2050635075  -0.9156374124  1.4391790722
C  2.4163420863  1.7058928172  1.8677380506
S  3.0349564123  1.8018667305  0.2604221957
W  2.5968511744  -0.2827997532  -0.8256528838
C  2.2259594416  2.9750582812  2.6404731142
C  1.3463732678  2.6706712908  3.8417167271
O  1.8622528831  1.5771363013  4.5555757813
C  6.7306269992  0.4783890025  0.7995960000
C  6.8869542648  -0.6424862666  -0.2228889644
C  5.5277112389  -1.0241426661  -0.7540851401
S  4.7240472882  0.1164922765  -1.7799554413
C  4.9575529397  -2.2304472987  -0.4550716687
S  3.3213292309  -2.5512814412  -0.8557857846
C  5.7887627949  -3.3058469088  0.1718379336
C  7.2550913768  -2.9843379391  -0.0524338477
O  7.5441500367  -1.7008989591  0.4310539867
O  0.9157831153  -1.0234586809  -1.4160267550
O  1.8527421747  0.7212890135  -2.2948827384
C  0.7337993861  -0.1050775526  -2.4674087771
H  -1.5901890505  5.4837432502  -4.2113423277
H  -1.8676029536  3.1408658903  1.7994893400
H  -0.4165156602  3.7611118032  1.0183922287
H  -0.5429035309  1.2343117890  1.1793590710
H  -0.2402942516  1.8675675109  -0.4300101072
H  -3.2381213072  3.5564592653  -0.0908717537
H  -4.5855405305  -0.9354875462  4.5245531823
H  -4.2562180914  -0.2027421628  2.9679771152
H  -4.3418843469  -2.3745978094  2.5963116023
H  -6.1349499202  0.8412666601  4.2174453130
H  -6.0080588205  1.3616783832  -0.6316587363
H  -7.3300220651  2.1459876850  0.2533916199
H  -7.3717393745  -2.5606534806  -4.5344993838
H  -6.7677463921  -2.2067962890  -0.3081621088
H  -5.2148363178  -1.4353785249  -4.9232090536
H  -4.6283902347  -1.1008358159  -0.6931565151
H  -3.1976794813  -0.1373108718  -2.3300342895
H  -3.6795138903  -5.3307472192  -0.0798398079
H  -4.7959516571  -4.3141343915  0.8220704393
H  -1.6659002616  -3.6852872445  -1.1224310167
H  -0.5283095168  -1.6336986428  -0.1746818793
H  -1.4507385179  -1.0225685196  2.1078090453
H  2.6801914647  -1.6024759817  4.1502579075
H  3.7836341671  -0.2499647891  4.4377328143
H  0.7656633493  -0.0613435121  3.9506914980
H  1.7516755932  3.7298889198  2.0092801786
H  0.3165921083  2.4841796641  3.5060532621
H  6.0567912613  0.1736976384  1.6001859358
H  6.3171876110  1.3726869653  0.3363182176
H  7.4949892070  -0.2811945484  -1.0684834685
H  5.5294552344  -4.2726150936  -0.2677863971
H  7.4978401067  -3.0822685911  -1.1201363840
H  1.3201234676  3.5150523609  4.5316548654
H  3.1901530438  3.3827256767  2.9580296279
H  2.5354664989  -0.6535802250  5.6287149711
H  7.7003453144  0.7280971772  1.2304583032
H  5.5701402453  -3.3760589120  1.2414244076
H  7.8953397992  -3.6768262087  0.4955202546
H  -1.0996061547  3.8024726260  -3.9699960951
H  -2.3097608900  5.0190228550  0.1965544406
H  -3.6649535389  -5.3483697076  1.6858836802
H  -7.0203963295  -0.6674629702  4.1966031184
H  -7.5228784096  0.5029113777  -0.3644272403
H  -5.2356832022  0.5485998385  1.3019146193
H  -1.9064307400  3.0977210321  -1.9962244821
H  0.0817058732  5.1118901149  -3.8194240930
H  -8.1837914648  -2.9497431528  -2.2184280020
H  -0.2074523017  0.4386171144  -2.3238410327
H  0.7427405020  -0.6060129592  -3.4430013974