116
charge=-1, multiplicity=1, basis=def2-QZVPP, AUX_BASIS_CORR=rimp2-def2-QZVPP, mem_total=700000, SCF_ALGORITHM=GDM, xc_grid=000099000590, num_basis=5135, num_pairs=3937718, num_threads=128
C  6.5251849987  0.0720769999  4.9560189978
C  5.9350491918  -1.3281759695  5.0512167386
O  5.6144890153  -1.8158618848  6.1173830354
N  5.7888311030  -1.9435975379  3.8559364676
C  4.8704809991  -3.0487729975  3.6423489976
C  3.4511919671  -2.5557480567  3.4307970101
C  3.2927805311  -1.5844783727  2.2594506490
O  4.3105225907  -1.2079531931  1.6464765925
O  2.1130601529  -1.2457253322  2.0183616168
C  -5.1931260072  -2.3445599930  -1.2168219958
C  -4.2468814009  -1.4190399306  -0.4949878500
S  -2.6599239762  -1.3797983094  -1.3727746962
C  8.4961620001  -0.1205850019  -3.0721879987
C  7.3112937292  -0.5870125881  -2.2918200814
C  6.9727859710  -0.2443131067  -1.0103689502
C  6.2851401450  -1.4813116868  -2.7379907458
N  5.8132386538  -0.8573510231  -0.6371901635
C  5.3687820807  -1.6170064237  -1.6732207225
C  6.0424335942  -2.1817621593  -3.9251675499
C  4.2218302045  -2.4030993287  -1.7634641208
C  4.9169553135  -2.9755575302  -4.0148934877
C  4.0131800012  -3.0820690022  -2.9430629976
C  2.4837519433  5.8429508462  -1.9091780814
C  1.4268586916  5.8092992799  -0.8179775776
N  0.5380952080  4.6916272285  -1.0416110314
C  -0.7749131715  4.6633287966  -0.9058265605
N  -1.4057253767  5.6622335236  -0.2473578841
N  -1.4885815068  3.7203511614  -1.4849909998
C  -2.5698189968  1.5725099994  4.8368410026
C  -3.7353910358  1.3728123251  3.8943541584
O  -4.5439157163  2.5295526750  3.9764856197
C  -3.2429855076  1.1122569759  2.4959357311
S  -2.1638495369  -0.2432922226  2.2776091881
C  -3.6649097985  1.8333191890  1.4463673241
S  -3.1259868170  1.4541267686  -0.1542420994
C  -4.7096206439  2.8967799136  1.6099713243
C  -5.4479340380  2.6663260841  2.9177049146
C  1.5423900569  2.5978941456  -3.8174509243
C  2.1794317894  1.8034367366  -2.6892828288
O  3.2707747929  2.5593616361  -2.2077781226
C  1.1782431559  1.5127886034  -1.5971209773
S  -0.2968466083  0.7325796799  -2.0983847328
C  1.4359758221  1.8348898827  -0.3142874739
S  0.2123101627  1.6723359069  0.9283702673
C  2.8075909672  2.2577283340  0.1317174329
C  3.7866910271  2.0335257719  -1.0059428148
W  -1.2409439814  -0.0611055989  0.1396061164
O  1.1698647793  -1.1298801364  -0.2472383410
C  -0.6533781407  -2.1285531096  0.8748256455
C  0.0389032011  -1.8439725614  -0.3136874299
C  -4.9614535906  -3.8358281667  -0.9280807657
O  -5.1603081103  -4.2915440182  0.1813649481
N  -4.6257660901  -4.6052877308  -1.9863796904
N  -6.5671508743  -2.0734852404  -0.8345078294
C  -7.4633815251  -1.4688554626  -1.6458825882
O  -7.2484071178  -1.1888287913  -2.8074384246
C  -4.4653479973  -6.0426960015  -1.8937870030
C  -8.7852369971  -1.1259330034  -0.9891689998
H  5.7094655785  0.7946662107  4.8949321953
H  3.0854547571  -2.0715624350  4.3408885584
H  2.7788596605  -3.4012805458  3.2596002038
H  4.9233248884  -3.7161102814  4.5017718589
H  5.8707065707  -1.3674622174  3.0319171409
H  8.1992066307  0.4139987289  -3.9776444334
H  9.1302179166  -0.9535111151  -3.3854580947
H  7.4934601460  0.4100075463  -0.3275916742
H  5.3218869076  -0.8121433509  0.2582093778
H  6.7243026150  -2.1014235414  -4.7638080289
H  4.7179554574  -3.5205565289  -4.9291209348
H  3.5154376709  -2.4575499551  -0.9472634658
H  3.1286829004  -3.6958739419  -3.0530880357
H  3.0335218334  4.9053059856  -1.9594196851
H  2.0264530304  6.0155538903  -2.8830668278
H  1.8987524419  5.7264761257  0.1657847763
H  0.8457067661  6.7330567790  -0.8279486018
H  0.9678451768  3.7837022819  -1.2259773808
H  -2.4043625150  5.5856236955  -0.1557179782
H  -0.9411270007  6.0600110148  0.5506145530
H  -2.3174427018  3.3607315218  -1.0100475029
H  -1.0138104881  2.9371880273  -1.9485361521
H  -4.1014233162  -1.7332342547  0.5416380967
H  -4.6911531472  -0.4272871705  -0.4836725291
H  -1.9278790106  2.3803335640  4.4847600026
H  -1.9661542626  0.6693443148  4.8952059157
H  -4.3174955747  0.4959852028  4.2263170671
H  -5.4103594519  2.8679784300  0.7703921934
H  -6.0893625680  1.7777024897  2.8183785102
H  1.1112511442  3.5362165030  -3.4659368906
H  0.7505854476  2.0192926418  -4.2879319637
H  2.5432062598  0.8435590397  -3.0878065417
H  3.1023403800  1.6430413771  0.9867801629
H  3.9871441575  0.9616519752  -1.1106091625
H  -0.1332768949  -2.1087981771  1.8258389190
H  -2.9194277701  1.8148984458  5.8420699512
H  -4.2532332354  3.8941429971  1.6072412106
H  -6.0960239612  3.5119185589  3.1606935350
H  2.2872193350  2.8373117076  -4.5779642927
H  3.1936075634  6.6481810684  -1.7188257393
H  4.7411583597  2.5303868772  -0.8210233242
H  2.8242723453  3.3003404513  0.4771531503
H  7.1022106096  0.2939944919  5.8507874256
H  7.1583242636  0.2103019695  4.0798019862
H  9.1163360551  0.5563349601  -2.4837140067
H  5.2181994805  -3.6071297356  2.7723157544
H  -5.1325804404  -2.1389695034  -2.2871585352
H  1.5955101310  -1.1104769941  0.6997207879
H  -1.4797779121  -2.8240149247  0.8141650753
H  -9.6025719244  -1.4151035812  -1.6470112604
H  -8.9354556806  -1.5958456768  -0.0173087101
H  -8.8420927423  -0.0452681564  -0.8552173738
H  -0.1619260841  -2.3287115630  -1.2630653656
H  -4.3457155134  -4.1432029900  -2.8333895985
H  -6.8162579618  -2.2862941178  0.1170724430
H  -4.4111770615  -6.4527399646  -2.8995630992
H  -3.5608128579  -6.3250121392  -1.3518667700
H  -5.3183232271  -6.4848958885  -1.3822577658