101
charge=-1, multiplicity=1, basis=def2-QZVPP, AUX_BASIS_CORR=rimp2-def2-QZVPP, mem_total=700000, SCF_ALGORITHM=GDM, xc_grid=000099000590, num_basis=4510, num_pairs=3406506, num_threads=128
C  -1.0530659756  5.2777860250  -2.9692230654
C  -1.3321449962  5.2893092930  -1.4675195980
O  -1.1861650684  6.3092976756  -0.8218907831
N  -1.7600458501  4.1194832778  -0.9410372491
C  -2.2601000170  3.9634099491  0.4166440810
C  -1.4354239380  3.0430935983  1.3051303012
C  -1.0648787123  1.7211409644  0.6412187306
C  -2.2511972593  1.0638654836  -0.0779079377
O  -3.2320184653  0.7608708058  0.6072355356
O  -2.1086097388  0.9124386365  -1.3267103714
C  -6.1890819984  -0.6203369994  3.6714950053
C  -6.9259760345  -0.0492473214  2.4661545740
O  -8.1426666799  0.0391517153  2.4746275639
C  -4.8407681370  -1.2772481489  3.4424987187
O  -5.0071328343  -2.4306270765  2.6755602441
N  -6.1775735649  0.4248635087  1.4550460951
C  -6.7787630172  1.0781120157  0.3201919904
C  -7.1623569992  -2.2503259990  -2.5980890024
C  -6.7475351676  -1.8521251094  -3.8622527934
C  -6.3476389152  -1.9539109415  -1.5106957636
C  -5.5577479394  -1.1643957703  -4.0369263616
C  -5.1526933369  -1.2677119686  -1.6705235635
C  -4.7438275688  -0.8523596404  -2.9419126334
O  -3.6182916165  -0.1784353145  -3.1749127939
C  -3.6116339876  -4.8054119988  0.2464360031
C  -2.6880202025  -3.6448848457  0.3047173489
N  -2.4929574904  -2.9438750742  1.4643202228
C  -1.9474711245  -3.0843437087  -0.6938199000
C  -1.6556366831  -1.9838474723  1.1684017692
N  -1.2875554379  -2.0342866560  -0.1205908916
C  2.8986579947  -1.0602419913  4.4077999906
C  1.9130036578  -0.0488960140  3.8502309442
C  2.1827805602  0.2883620888  2.4015504632
S  2.3722990160  -1.0425284678  1.2925051577
C  2.2395474795  1.5431864251  1.9564645663
S  2.5184539362  1.8477408191  0.2719143776
W  2.5751825761  -0.2306835973  -0.9209810398
C  2.0360139044  2.7116727483  2.8693815356
C  1.3282817296  2.2185521673  4.1211533969
O  1.9892276749  1.1001164653  4.6555667146
C  6.7865790005  0.5767509989  0.7599880009
C  6.9052053050  -0.5974582540  -0.2056303317
C  5.5501373306  -0.9523956441  -0.7726144952
S  4.7653652723  0.2641983441  -1.7418127748
C  4.9830177205  -2.1640889937  -0.5590020024
S  3.3603948892  -2.4718006760  -1.0766639696
C  5.7618750883  -3.2675688391  0.0843977413
C  7.2403051016  -2.9357654337  -0.0087040051
O  7.4836930227  -1.6580336127  0.5145161469
O  1.0330996809  -0.6687907505  -1.6366543948
O  2.2461846783  1.2523148335  -2.4956747108
C  1.0335997144  0.9939704015  -2.7271670999
H  -1.7539323661  5.9526982594  -3.4595153055
H  -2.0206442157  2.8585130423  2.2088407014
H  -0.5218426687  3.5580496932  1.6127918746
H  -0.6755622626  1.0392686022  1.4049285451
H  -0.2465945952  1.8968260805  -0.0548148270
H  -3.2776331248  3.5703320412  0.3543999914
H  -4.4092556518  -1.5004039056  4.4327258165
H  -4.1444375262  -0.5643741573  2.9760521792
H  -4.1264701542  -2.6961686242  2.3535371275
H  -6.0569734976  0.2067617490  4.3779750582
H  -5.9832276608  1.3611587653  -0.3634436046
H  -7.3278631053  1.9736093857  0.6186971314
H  -7.3613933703  -2.0718919259  -4.7279193490
H  -6.6400718015  -2.2463639498  -0.5089699249
H  -5.2464859347  -0.8474819234  -5.0248747686
H  -4.5467773124  -1.0343340077  -0.8036607498
H  -3.1606280854  0.1544294235  -2.3541441133
H  -3.6320278232  -5.2398260497  -0.7520666372
H  -4.6309459559  -4.5059845280  0.4958403931
H  -1.8574317527  -3.3210572386  -1.7395337214
H  -0.7120596435  -1.3650170444  -0.6076628691
H  -1.3007746435  -1.2274419211  1.8487630970
H  2.8084611689  -2.0155203080  3.8933568505
H  3.9230647336  -0.7047478173  4.2958137392
H  0.8982500018  -0.4790389387  3.9087364262
H  1.4397687709  3.4842744028  2.3798771165
H  0.2810208570  1.9861257098  3.8802636819
H  6.0680954513  0.3501418354  1.5479629564
H  6.4475900543  1.4712249091  0.2409748649
H  7.5579489929  -0.3080502996  -1.0467704085
H  5.5487074577  -4.2142454576  -0.4197574245
H  7.5721717809  -3.0144238331  -1.0539854550
H  1.3264621942  2.9849676635  4.8974189459
H  2.9989283797  3.1666689743  3.1198204663
H  2.7013477892  -1.2287489759  5.4663556761
H  7.7545170306  0.7865163896  1.2152483137
H  5.4557034139  -3.3889817365  1.1274257071
H  7.8366047010  -3.6346844109  0.5796559331
H  -1.1452369156  4.2951988338  -3.4318954183
H  -2.3261384011  4.9555239240  0.8604257535
H  -3.3181364915  -5.5853228357  0.9508553434
H  -6.8655530217  -1.3279495164  4.1526877076
H  -7.4666658502  0.4220525055  -0.2131984965
H  -5.1747287775  0.3180222975  1.4304680002
H  -1.8904593608  3.3241626173  -1.5479711629
H  -0.0496636211  5.6596113810  -3.1503891112
H  -8.0955180827  -2.7800249757  -2.4604295416
H  0.2147388886  1.4008463520  -2.1237861615
H  0.7461244846  0.5868645187  -3.7026701568