82
charge=0, multiplicity=1, basis=def2-QZVPP, AUX_BASIS_CORR=rimp2-def2-QZVPP, mem_total=700000, SCF_ALGORITHM=GDM, xc_grid=000099000590, num_basis=3680, num_pairs=2789867, num_threads=128
C  5.5943070027  -1.9557390066  2.7482269963
C  4.3341292885  -1.9192455309  1.9515164475
N  3.1112919562  -2.3422838991  2.4205966832
C  4.0784147330  -1.4913726736  0.6835380040
C  2.1909223803  -2.1521453701  1.4582589081
N  2.7474317636  -1.6326782380  0.3956928604
C  -0.8414639877  -3.9849529527  -2.5932209660
C  -0.7284506063  -2.7690301610  -1.7165821736
O  0.4053947244  -2.5443539769  -1.2394037873
O  -1.7507784764  -2.0653581589  -1.5417238139
C  3.3983909023  1.3858884605  1.8711905440
O  2.2248077624  1.0861506604  1.8633262555
O  4.1369722055  1.6326313014  0.8150228318
C  -0.4489510075  -1.5428750174  3.6877519757
C  -1.2469421150  -1.0321027385  2.5128579015
O  -1.9476153046  -0.0275073912  2.6298605589
O  -1.0931829562  -1.6889039434  1.4328175238
C  4.8229790062  0.0273579855  -3.4338439819
C  3.6690329781  -0.1575706197  -2.4850587498
O  2.9655882729  -1.1875219830  -2.6467689709
O  3.4144694536  0.7016313797  -1.6128350276
C  -7.3352599987  -2.4408020123  -0.0832969944
C  -6.0506201933  -1.7677531304  0.2265543389
N  -5.8578638074  -1.0113786649  1.3565474918
C  -4.8527022695  -1.7322851198  -0.4199921749
C  -4.5931902929  -0.5623687779  1.3654537149
N  -3.9624511401  -0.9814527875  0.2982708796
Zn  -1.9227917868  -0.7207290484  -0.0498701361
Zn  1.5387766672  -0.9294260576  -1.2471546997
C  0.2079153161  1.6168694691  -2.1892590855
C  -0.6881621012  2.4927486465  -3.0525770233
N  0.3404310639  0.2592833209  -2.7311990732
O  -1.5848679478  1.0157244066  -0.7368019155
O  0.5222354532  0.4667039209  -0.0965582216
H  -7.6130919901  -3.1648032551  0.6848542913
H  -8.1577977202  -1.7305575055  -0.1859453012
H  -4.5729060351  -2.2054963693  -1.3462067992
H  -6.5434614900  -0.8296646646  2.0688102589
H  -4.1571517579  0.0271194423  2.1546392817
H  6.3992530162  -1.4962911519  2.1785361388
H  5.5006402247  -1.4082914503  3.6879266327
H  5.9023009785  -2.9752552069  2.9877594043
H  4.7799521076  -1.0817969215  -0.0223297313
H  1.1414148422  -2.3836361949  1.5595443730
H  -0.2162191024  -3.8533082214  -3.4774813939
H  -1.8635830378  -4.1788674031  -2.9089135955
H  0.5181769955  -1.0327849543  3.6929428318
H  -0.2749328292  -2.6166324641  3.6292255423
H  4.4497165953  0.4304968686  -4.3774543641
H  5.5612019439  0.7257873612  -3.0458630785
H  -0.7923496441  3.5030583472  -2.6586317180
H  -1.6913846921  2.0725633133  -3.1157504401
H  0.7952916089  0.2851292205  -3.6361569762
H  -0.5910727606  -0.1168917470  -2.8867405065
H  -0.4552218656  -4.8588525825  -2.0691203287
H  5.2983645931  -0.9250141224  -3.6598665219
H  -7.2535253446  -2.9804844278  -1.0242402500
H  -0.9380095487  -1.3086464001  4.6316748079
H  3.7230064157  1.3881475021  -0.0490656081
H  1.0677608292  0.8841074866  0.6061956239
H  1.2145837534  2.0418402649  -2.1468215176
C  -0.3250069285  1.4672502234  -0.7439804750
H  -0.2801239849  2.5778614441  -4.0619271440
C  4.1639759867  1.5337490015  3.1544599677
H  3.5679363086  1.1819078108  3.9912127566
H  4.4141720312  2.5827114729  3.3226088073
H  5.1051334065  0.9873821233  3.1120316095
N  -0.1013009423  2.6958000272  -0.0161969998
H  0.0335623047  3.4854186294  -0.6330445025
C  -1.0892322068  3.0132514072  0.9868319694
H  -1.3016324030  2.1179648126  1.5718873625
C  -0.5348426174  4.0739062614  1.9366799092
C  -2.3877251499  3.5399608731  0.3835511151
H  -0.2796616409  4.9904876002  1.4018879858
H  -1.2551049341  4.3332787389  2.7146082192
H  0.3642846854  3.6931574540  2.4188768009
O  -2.3749851516  4.3075937840  -0.5477844142
C  -3.6646285870  3.0881285792  1.0377897874
H  -4.4933309076  3.7542362150  0.8066937148
H  -3.8897002883  2.0940919934  0.6471716319
H  -3.5511200899  2.9877084278  2.1181438097
H  2.9232103786  -2.7184840073  3.3335168169