96
charge=-1, multiplicity=6, basis=def2-QZVPP, AUX_BASIS_CORR=rimp2-def2-QZVPP, mem_total=700000, SCF_ALGORITHM=GDM, xc_grid=000099000590, num_basis=4178, num_pairs=2968638, num_threads=128
H  2.2852922008  0.6233103419  -7.7530650945
C  2.0656999974  1.4915000059  -7.1284000036
H  1.5813603439  2.2327933725  -7.7677779105
H  3.0202481746  1.9117772619  -6.8106273087
C  1.2085183144  1.1246895367  -5.9482717934
C  1.6210226622  1.3477429654  -4.6416772783
H  2.5901050587  1.7996929787  -4.4593240489
C  0.8317015588  1.0060559809  -3.5508861364
H  1.1948478544  1.1918466708  -2.5474403329
C  -0.4184695909  0.4166138274  -3.7424246875
O  -1.2390583461  0.0663358114  -2.7519291210
H  -0.8341337085  0.1862021504  -1.8600067694
C  -0.8421060741  0.1849082550  -5.0552092582
H  -1.8035439353  -0.2854129433  -5.2167025220
C  -0.0423050752  0.5336913747  -6.1255546184
H  -0.3992767637  0.3325494842  -7.1299001737
H  3.4671390265  -2.8362481466  -1.4905989017
C  3.1612000007  -3.8722000194  -1.6254000044
H  4.0241548359  -4.4699784704  -1.9182217770
H  2.4512126169  -3.9229585658  -2.4526803521
C  2.5085629020  -4.4566730724  -0.3850190070
O  2.2418273451  -3.7361035596  0.5935391152
O  2.2540845267  -5.6935942518  -0.4610806907
H  3.0428436129  0.9150291464  2.6346959570
C  1.9575000284  0.9417000010  2.7499999743
H  1.6672713276  1.9802541815  2.8940997995
H  1.7113275206  0.3992916508  3.6647758324
C  1.2510919445  0.3888381337  1.5590645034
N  1.3722655887  -0.8951260152  1.0866009732
H  1.9506650636  -1.6576388268  1.4120625962
C  0.5908804458  -1.0162962448  -0.0005287714
H  0.5058974044  -1.9400252914  -0.5495966244
N  -0.0284618677  0.1050404671  -0.2653536024
C  0.3727463067  0.9853369504  0.6984258268
H  0.0123849403  2.0016799781  0.7254191785
H  -5.3993458619  -9.4994499139  -0.1733132270
C  -6.1348999867  -9.3299999734  -0.9565999978
H  -6.6671028767  -10.2612602857  -1.1386462357
H  -5.6258814651  -9.0378308510  -1.8726417816
S  -7.3723711122  -8.1034072830  -0.4518047638
H  -6.5326066531  -7.0855943061  -0.2229866899
H  -2.7292588946  0.5831226147  4.6991755290
C  -2.7268000964  -0.5010999973  4.8029000226
H  -3.7046824494  -0.7893307590  5.1950920947
H  -1.9693564918  -0.7728871777  5.5378705464
C  -2.4517124950  -1.1609640861  3.4587939762
H  -1.4816245608  -0.8314745365  3.0774113037
H  -3.2031215848  -0.8463262571  2.7271880718
N  -2.4156916307  -2.5985773949  3.6191840934
H  -3.1113882509  -2.9630103112  4.2517696259
C  -2.1084802010  -3.4483913832  2.5814328903
N  -2.0110056341  -4.7778116888  2.9566601328
H  -2.2509970546  -4.9655654231  3.9167168877
H  -2.4893496292  -5.4244592438  2.3139950772
N  -1.8286275465  -3.1236959236  1.3779888088
H  -2.0426112365  -2.1632486205  1.1463795862
H  -1.4723959970  -4.2878323109  0.1505091950
H  -6.9565465068  -0.2296056031  2.3574745208
C  -6.3620999482  -0.4721000171  3.2368000002
H  -6.8689630526  -0.0601099352  4.1107446896
H  -5.4085171320  0.0438265839  3.1295002696
C  -6.1765930727  -1.9710471679  3.3792336448
H  -7.1382344870  -2.4668088529  3.5375009224
H  -5.5892107984  -2.2053895321  4.2738286748
C  -5.5041691994  -2.6117581013  2.1745323853
O  -5.1113452892  -1.9569382658  1.2382492047
O  -5.4161536800  -3.9105406120  2.3009040912
H  -5.0655825892  -4.3830380091  1.4467942947
Mn  0.3517945217  -6.5477533286  -0.1246082189
O  -1.2886993077  -5.9205559258  -3.7986105857
C  -1.0852199677  -6.0370388231  -2.6041685641
O  -0.2461505674  -6.8306592738  -2.0521224061
C  -1.9650300142  -5.2298780972  -1.6052424634
C  -2.3885102124  -3.8771727927  -2.1524162268
O  -1.1641238152  -5.0328861584  -0.4427211484
C  -3.1875073362  -6.1662609332  -1.2872454320
H  -2.7966471619  -7.1883589103  -1.2594373311
C  -4.2595354174  -6.1066192028  -2.3684379136
C  -3.7465349996  -5.8734835710  0.1028188467
O  -3.2396014990  -6.4860503322  1.0857286338
O  -4.6686425505  -5.0416205003  0.1947333477
H  -3.0917373086  -3.3788342079  -1.4823377017
H  -2.8549701835  -3.9749906329  -3.1284791606
H  -1.5192502712  -3.2301568553  -2.2808277178
H  -4.7654527519  -5.1438259670  -2.3798737761
H  -5.0245127412  -6.8664906377  -2.1979252970
H  -3.8241231142  -6.2848979197  -3.3504785020
O  1.8574508671  -8.1598834055  0.8283649093
H  2.6441459213  -7.6395914778  0.6273240427
H  1.6657881882  -7.9746329649  1.7533367242
O  0.6282212631  -5.6084716030  1.9788214617
H  -0.1951332062  -5.2945064065  2.3978052141
H  1.1593186531  -4.8227205330  1.7401344547
O  -1.1404372364  -7.9451603643  0.8122249931
H  -2.0010629938  -7.4256709288  0.9153876357
H  -1.3435551900  -8.6749050949  0.2216026405