89
charge=-2, multiplicity=1, basis=def2-QZVPP, AUX_BASIS_CORR=rimp2-def2-QZVPP, mem_total=700000, SCF_ALGORITHM=GDM, xc_grid=000099000590, num_basis=4112, num_pairs=2987609, num_threads=128
H  99.2923309998  151.2130289984  146.9388330024
C  98.2357538824  151.0420405377  146.6535489207
O  97.5243375791  151.9518971189  146.2845947180
N  97.8788772339  149.7559541088  146.7697426336
H  96.9446965294  149.4576584142  146.5420734274
H  98.5020119235  149.0313988034  147.0855406541
H  103.1525110353  141.1208539478  144.2782180428
C  102.5723582456  142.0263148703  144.0270593449
O  102.9155209383  143.1289188752  144.4056834423
N  101.5237170335  141.7768027190  143.2260549823
H  101.2305520101  140.8223457752  143.0943725381
C  100.5697225290  142.8044754714  142.9142324559
H  100.3327597951  143.3974898842  143.7977289498
H  100.9801539539  143.4946490561  142.1725959401
C  99.3055897725  142.2384451381  142.2972882783
O  99.2863724904  141.1767253074  141.7049805410
N  98.2562312470  143.0809476236  142.3928678380
H  98.3127011491  143.8328926064  143.0686969846
C  96.9840390363  142.8216163529  141.7653125314
H  96.5255927958  143.7900388182  141.5447306582
H  97.1764810068  142.3310379958  140.8021810194
C  95.9821556048  142.0115288245  142.6245427804
O  95.4038826277  141.0409840807  142.1839664805
N  95.7684461977  142.5257741523  143.8580137665
H  96.3230925263  143.3134227413  144.1748359728
C  94.9855845723  141.8925828877  144.9005213136
H  94.9422804445  142.6181292893  145.7177533569
H  93.9385180149  141.7037119997  144.6064119936
C  95.6247448448  140.6110065877  145.4576512039
O  94.9742941802  139.6193539710  145.7275598674
N  96.9653616866  140.6896771093  145.6504893797
H  97.4311706504  141.5698629719  145.4699066789
C  97.8005748418  139.5208203515  145.8099278082
H  97.3719819885  138.7201004693  145.1987737759
C  99.2173676103  139.7905935634  145.2929658548
H  99.1311283449  140.2138816892  144.2894205183
H  99.6995226546  138.8186267579  145.1815226849
S  100.2963277172  140.7797745328  146.3760339236
C  97.9006236004  138.9322081704  147.2170727934
O  98.3182989978  137.7981368212  147.3788186848
N  97.5026660459  139.7201563445  148.2301320070
H  97.1806535498  140.6515265808  148.0197282195
C  97.5265574812  139.3036577271  149.6075359803
H  97.2862852602  140.1831351442  150.2071689020
C  96.5166631900  138.1955762669  149.8803027831
H  96.8467442019  137.2678230663  149.4085655685
H  96.4423746419  138.0181029762  150.9558482554
O  95.2168391836  138.5387493776  149.4317478017
H  95.2756201532  138.7509977726  148.4875506992
H  98.5150809958  138.9599040002  149.9336469902
H  98.0136329873  146.2882020012  151.1829899984
C  97.8107721256  145.6166885871  152.0331823653
O  97.6325912153  146.0180657647  153.1669403817
N  97.8113875390  144.3315609630  151.6481898548
H  97.8892368695  144.1363844687  150.6555402488
C  97.4865808994  143.2585198635  152.5442961172
H  97.9817507843  142.3456676068  152.2151122663
H  97.8264180311  143.4988569992  153.5512259921
H  96.4106650529  143.0619205699  152.5868297999
H  93.2645147257  143.8611427846  152.5109327452
C  93.0720812635  143.1160798299  153.2925503356
H  94.0264567602  142.9330373438  153.8031929516
H  92.3968719555  143.5761950195  154.0195120318
O  92.4636016448  141.9478793914  152.8149756519
H  93.0207938560  141.5665577538  152.1286846055
H  93.2201467070  143.3241790856  148.4872396940
C  93.2268296572  142.7120562733  149.3834167505
H  93.3760818588  143.3687719732  150.2400893226
H  92.2833850122  142.1853670036  149.5107299795
C  94.2955259233  141.6719729664  149.3108768445
O  94.2030945280  140.8083080326  150.3281937847
O  95.1106720807  141.5757059926  148.4332427709
H  93.2113669922  146.0909819759  148.9204920554
C  94.0615164725  145.9085512193  148.2604169853
S  95.4980690325  145.4265275648  149.1119781218
C  94.0279678911  145.9455103279  146.9213885799
S  95.4310717167  145.5420784508  145.9698487728
H  93.1450280141  146.1875990031  146.3280509638
Cu  99.7273873085  142.9224227451  146.6342463133
S  98.1578182789  144.2389502729  145.5277922265
Mo  97.3565625298  145.1703743179  147.5240362039
O  97.9624276045  144.0825245439  148.6926766355
O  98.1551954791  146.6358839217  147.6894671998
C  100.8956591396  143.9648694543  147.7400197904
O  101.6065085086  144.5378096279  148.4035183684
H  94.6753392389  139.9648969070  150.0939095601
O  101.2015004938  145.8247890511  144.7263546554
H  101.7327218707  145.0238389214  144.6875751259
H  100.3320852723  145.5379749260  145.0281968746