82
charge=0, multiplicity=1, basis=def2-QZVPP, mem_total=700000, AUX_BASIS_CORR=rimp2-def2-QZVPP, SCF_ALGORITHM=GDM, xc_grid=000099000590, num_basis=3680, num_pairs=2757895, num_threads=128
C  5.3403620273  -0.1975480315  3.4107530185
C  4.1730234511  -0.7138703010  2.6446430863
N  2.9643889092  -1.0387554316  3.2133222236
C  3.9922237296  -0.9279583556  1.3124792908
C  2.1180921931  -1.4120839641  2.2364180580
N  2.7157875484  -1.3592101532  1.0762111615
C  -0.8650390059  -4.9199739924  -0.2306229968
C  -0.7356997376  -3.4186248894  -0.3573656591
O  0.3994455539  -2.9248206200  -0.2427066737
O  -1.8038777867  -2.7739000493  -0.5318472347
C  2.7834034648  2.5157413777  0.8809150629
O  2.1284999951  1.5099519776  1.3993043638
O  2.4624959488  3.0817893812  -0.1465981647
C  -0.7278870054  0.6527369979  3.5765439987
C  -1.3962699330  0.3629222449  2.2601892445
O  -1.8885779038  1.2930646833  1.6007535881
O  -1.3804964627  -0.8452895259  1.8820625282
C  5.0669880040  -2.1569209990  -2.8986269982
C  3.8531236714  -1.7144120774  -2.1107642584
O  3.0035555992  -2.6022548041  -1.8172373230
O  3.7296801450  -0.5255699526  -1.7681490257
C  -7.4299819994  -2.2493620016  0.5585809991
C  -6.1352289079  -1.5212652453  0.4913190721
N  -5.9672616723  -0.2452818271  0.9736335429
C  -4.9061599120  -1.8729016530  0.0185041606
C  -4.6871364327  0.1198155403  0.7908102936
N  -4.0232953210  -0.8449093295  0.2102057872
Zn  -1.9309948539  -0.8786910561  -0.0070596503
Zn  1.6760121432  -1.4315465040  -0.7899111876
C  0.6638145750  0.7780720948  -2.5480364808
C  -0.0021348088  1.4000108595  -3.7675299326
N  0.8889667416  -0.6594437530  -2.7452139698
O  -1.3483856827  0.2907321774  -1.4000333908
O  0.5895934649  0.2541181644  -0.2270570275
H  -7.7684447569  -2.3856680015  1.5872275169
H  -8.2211993758  -1.7337714411  0.0113585462
H  -4.5979247021  -2.8004163267  -0.4341282072
H  -6.6770752286  0.3179009251  1.4088056615
H  -4.2685672643  1.0596766862  1.1114269663
H  6.1761784549  -0.0308942448  2.7341752175
H  5.1189329174  0.7530279184  3.9001908347
H  5.6779135617  -0.8967747626  4.1783185370
H  4.6895409944  -0.7650199174  0.5086948835
H  1.0870984696  -1.6854506606  2.4005473668
H  -1.7801903407  -5.2870631115  -0.6893560307
H  -0.8940117677  -5.1812723735  0.8292326550
H  0.3083157212  0.9387839614  3.3804858312
H  -0.7242680712  -0.2166177390  4.2317665778
H  5.6359536931  -1.3099554304  -3.2748827611
H  5.7191480811  -2.7526499384  -2.2570006770
H  0.0212562073  2.4889555707  -3.7558836835
H  -1.0391390299  1.0764035800  -3.8626375317
H  1.5595001022  -0.8165315544  -3.4870350881
H  0.0162782933  -1.0998545535  -3.0205839078
H  -0.0036340104  -5.4235732439  -0.6643234805
H  4.7775830765  -2.8002485352  -3.7291340188
H  -7.3208013705  -3.2379594235  0.1181516389
H  -1.1993340933  1.4915692127  4.0855065527
H  0.6407533803  2.7084875359  -0.5207438541
H  1.4810670478  1.0702192427  0.7389641419
H  1.6430284659  1.2345866891  -2.3821269292
C  -0.1426965793  0.7969027698  -1.2218407355
H  0.5288995776  1.1025292162  -4.6739847920
C  4.0027729769  2.9025370221  1.6822479815
H  3.7902300343  2.8922056701  2.7503151493
H  4.3625041664  3.8842627497  1.3876707937
H  4.7902380395  2.1703031033  1.4971886567
N  -0.3114842675  2.3413704737  -0.6808716509
H  -0.7270636592  2.1798767874  0.2497716887
C  -1.1096845176  3.3746717321  -1.3565706521
H  -0.6754870512  3.5546117690  -2.3409229863
C  -2.5788421382  2.9945318703  -1.5205456411
C  -1.0078952258  4.6852207377  -0.5771041901
H  -3.0374259023  2.8123957241  -0.5491869689
H  -3.1203306941  3.8008200654  -2.0142996803
H  -2.6826528536  2.0917131991  -2.1124844924
O  -0.5060382863  4.7423922989  0.5130365389
C  -1.6057923352  5.8966314086  -1.2511102639
H  -2.6458352984  6.0130741690  -0.9396514893
H  -1.0698441416  6.7929468802  -0.9458405089
H  -1.5968403130  5.8215352288  -2.3380348676
H  2.7325947334  -0.9751438828  4.1888357384