82
charge=0, multiplicity=1, basis=def2-QZVPP, AUX_BASIS_CORR=rimp2-def2-QZVPP, mem_total=700000, SCF_ALGORITHM=GDM, xc_grid=000099000590, num_basis=3680, num_pairs=2768243, num_threads=128
C  5.3014970167  -0.5292860318  3.4024820185
C  4.0978097854  -0.9150538424  2.6174500166
N  2.8810900701  -1.2254067479  3.1762451378
C  3.9022828036  -1.0458612482  1.2767910758
C  2.0149796483  -1.5128069935  2.1897318284
N  2.6096591346  -1.4198705541  1.0289351879
C  -1.0885839963  -4.8511390030  -0.4127990081
C  -0.8797834659  -3.3540418557  -0.4378427732
O  0.2842249674  -2.9532728875  -0.2345071054
O  -1.8822631136  -2.6259667876  -0.6395832193
C  2.7507959866  2.3883764289  1.1840087207
O  1.9769711403  1.5833913356  1.6726575931
O  2.5158132060  3.0401776123  0.0780401864
C  -0.7281889837  0.5529620124  3.6163770262
C  -1.4492785254  0.2906434969  2.3221278466
O  -2.0067395132  1.2212310023  1.7272379755
O  -1.3934947643  -0.8968419798  1.8724708628
C  4.9464420071  -2.2190810024  -2.9803620007
C  3.7372385113  -1.8230889196  -2.1721581977
O  2.8952067981  -2.7273431535  -1.9078887653
O  3.6063323869  -0.6506469255  -1.7758620391
C  -7.5420360061  -1.9570930011  0.4987709901
C  -6.2267742393  -1.2692695645  0.4261044474
N  -6.0368944408  0.0286155887  0.8366041510
C  -4.9955881014  -1.6813450172  0.0127809361
C  -4.7427072024  0.3483488736  0.6741144950
N  -4.0903027991  -0.6676349183  0.1729563178
Zn  -2.0126056790  -0.7364282792  -0.0038582913
Zn  1.6073708618  -1.5801227781  -0.8249665410
C  0.6894858883  0.7747564250  -2.4460602185
C  0.1745383733  1.4603390443  -3.7051021224
N  0.7262369680  -0.6859516931  -2.6214388308
O  -1.3837561739  0.4750294393  -1.3519681874
O  0.5102300454  0.2032652759  -0.1501394004
H  -7.9123432305  -2.0223960352  1.5234266648
H  -8.3034833720  -1.4547023133  -0.1005568975
H  -4.7015569733  -2.6405406945  -0.3792277700
H  -6.7426394617  0.6361313352  1.2150750349
H  -4.3085048033  1.2946198287  0.9503483284
H  6.1204777815  -0.2969116092  2.7250410619
H  5.1254712847  0.3541437779  4.0193299796
H  5.6397111189  -1.3311910134  4.0615355576
H  4.6037473196  -0.8760189110  0.4782258808
H  0.9746057817  -1.7553296571  2.3455889779
H  -0.3521699074  -5.3452206729  -1.0452619791
H  -2.0900345788  -5.1322235564  -0.7288610677
H  0.3001408438  0.8404002983  3.3906169205
H  -0.7039047249  -0.3301879612  4.2537912822
H  5.4803441164  -1.3516602633  -3.3612830003
H  5.6306250382  -2.7920174523  -2.3511474022
H  0.3899853313  2.5281554832  -3.7125793769
H  -0.8994135615  1.3159890697  -3.8288015369
H  1.2899661940  -0.9249895459  -3.4288738060
H  -0.2200707482  -1.0091063551  -2.8072984796
H  -0.9286874847  -5.2173272160  0.6025197957
H  4.6674955426  -2.8696855426  -3.8083005445
H  -7.4495294651  -2.9730312902  0.1211351783
H  -1.1810022561  1.3789507427  4.1616546100
H  1.5844758277  2.8481755056  -0.2592796574
H  0.9980866368  0.7490275651  0.5065515388
H  1.7146479222  1.0999947867  -2.2547820385
C  -0.1654383559  0.9746352898  -1.1623082758
H  0.6745225901  1.0487592367  -4.5846931459
C  4.0866059704  2.6887660213  1.8038629735
H  4.1225890265  2.3110850591  2.8211933847
H  4.2968915386  3.7570133919  1.7963104488
H  4.8678946804  2.1967043517  1.2222469253
N  -0.1009350364  2.3643251190  -0.6424128740
H  -0.4397108945  2.3185783162  0.3196529710
C  -0.9266265911  3.3752103380  -1.2992543244
H  -0.8220781805  3.2865694208  -2.3792608061
C  -2.4238586342  3.3048415695  -0.9620512856
C  -0.4490077567  4.7640210808  -0.8925702689
H  -2.5709706468  3.3516478371  0.1168825713
H  -2.9700886699  4.1330088265  -1.4177744198
H  -2.8422180074  2.3721299930  -1.3272815899
O  0.0478524275  4.9779476048  0.1823001997
C  -0.6595349271  5.8525157511  -1.9157378635
H  -1.6000444657  5.7354876884  -2.4544271488
H  -0.6199418874  6.8385158236  -1.4585882968
H  0.1385301922  5.7887021633  -2.6602754179
H  2.6529350490  -1.1938650996  4.1544086913