96
charge=-1, multiplicity=6, basis=def2-QZVPP, AUX_BASIS_CORR=rimp2-def2-QZVPP, mem_total=700000, SCF_ALGORITHM=GDM, xc_grid=000099000590, num_basis=4178, num_pairs=2924063, num_threads=128
H  1.6871177109  0.7551405218  -7.7938190985
C  2.0709999877  1.5220999868  -7.1168999880
H  2.0507018863  2.4688756708  -7.6578539687
H  3.1164237977  1.2811750931  -6.9191882822
C  1.2680398300  1.5937920884  -5.8480030741
C  1.5126549352  0.7298870932  -4.7861342950
H  2.3160166691  0.0053089491  -4.8618073660
C  0.7532997713  0.7571480957  -3.6273116990
H  0.9774965221  0.0642598801  -2.8261214535
C  -0.2962376665  1.6687504543  -3.4900931706
O  -1.0732202522  1.7477028217  -2.4082028731
H  -0.7951275791  1.1194330588  -1.7004433551
C  -0.5461321841  2.5450528449  -4.5479230272
H  -1.3546055741  3.2594271338  -4.4563420894
C  0.2242227470  2.5018631289  -5.6971891580
H  0.0018198448  3.1951443325  -6.5011594679
H  3.5985346233  -2.9122295328  -1.3380251323
C  3.1643000431  -3.8649000225  -1.6366000595
H  3.9612659401  -4.5734567396  -1.8598839621
H  2.6051763773  -3.7207609715  -2.5625518193
C  2.2285423136  -4.4358164005  -0.5803875701
O  1.9090693882  -3.7543351555  0.4116996526
O  1.8252040005  -5.6076905795  -0.8187866294
H  3.0289537714  0.8032448247  2.6336488480
C  1.9516001031  0.9284001335  2.7588000799
H  1.7592613595  1.9888066348  2.9091606841
H  1.6651054874  0.4072842575  3.6745666706
C  1.1861846621  0.4503879403  1.5724428342
N  1.1793122521  -0.8350443510  1.0863826655
H  1.7074975616  -1.6427520184  1.3860192006
C  0.3771398725  -0.8688584177  0.0055897080
H  0.1977343868  -1.7753715320  -0.5500180314
N  -0.1355265683  0.3093752268  -0.2381504333
C  0.3595482854  1.1356820621  0.7287549015
H  0.0997861866  2.1820268460  0.7666131388
H  -6.8464696903  -9.2376806836  -1.8135048299
C  -6.1276000700  -9.3335000712  -1.0033000157
H  -6.4997806105  -10.0704666702  -0.2949675751
H  -6.0196562298  -8.3823799879  -0.4871581909
S  -4.5272172897  -9.9480376675  -1.6058113845
H  -4.2796448113  -8.9584514821  -2.4715884697
H  -2.6171095691  0.5534309698  4.7422508288
C  -2.7341000401  -0.5275000334  4.7995999567
H  -3.7553209584  -0.7391315580  5.1171412874
H  -2.0506712447  -0.8914102557  5.5699645071
C  -2.4397930364  -1.1605888054  3.4436292564
H  -1.4271726292  -0.8885217499  3.1171243754
H  -3.1310907113  -0.7626283119  2.6982433282
N  -2.6105038625  -2.5952045395  3.5140382847
H  -2.4199505362  -2.9992721120  4.4159220553
C  -2.3934392918  -3.4296643577  2.4438853147
N  -2.3497975549  -4.7771499855  2.7769029643
H  -2.7891992087  -4.9877512016  3.6606629057
H  -2.7994281423  -5.3605061238  2.0568947214
N  -2.2092859669  -3.0881019703  1.2277218290
H  -2.2895216847  -2.0968401659  1.0512644364
H  -1.9178051060  -4.2147538097  -0.0785130275
H  -7.0458013050  -0.2375584966  2.4165773846
C  -6.3675000202  -0.4947999766  3.2290000247
H  -6.7675664909  -0.0622107152  4.1478772206
H  -5.4183037956  -0.0052378271  3.0159512825
C  -6.2082352544  -1.9949717245  3.3603058527
H  -7.1594610427  -2.4684599379  3.6153270234
H  -5.5268924869  -2.2455682786  4.1794975230
C  -5.6658036085  -2.6302421938  2.0937544017
O  -5.2217009272  -1.9624705170  1.1880449234
O  -5.7439085262  -3.9323138581  2.1280330316
H  -5.4418966188  -4.3757664364  1.2389932548
Mn  -0.0975988967  -6.4641180135  -0.4886875376
O  -1.8044242086  -5.6622562781  -4.1017152665
C  -1.5676309550  -5.8311159267  -2.9189277123
O  -0.7047851584  -6.6359151094  -2.4259815735
C  -2.4332804818  -5.0849074692  -1.8626935393
C  -2.8993887774  -3.7210756339  -2.3415972079
O  -1.6023938706  -4.9171978663  -0.7153683719
C  -3.6203874852  -6.0579485886  -1.5405252952
H  -3.1957858177  -7.0656690666  -1.5230665667
C  -4.7120748959  -6.0274594945  -2.6028698703
C  -4.1695506777  -5.7849377776  -0.1434337842
O  -3.6442869966  -6.3963273431  0.8310044882
O  -5.0967813989  -4.9632760314  -0.0429976210
H  -2.0396574651  -3.0645771056  -2.4858269127
H  -3.5754982775  -3.2563658354  -1.6213604401
H  -3.4084122329  -3.7918596251  -3.2987847746
H  -5.2501163988  -5.0821105222  -2.5990864817
H  -5.4501136310  -6.8116624606  -2.4165725241
H  -4.2925733026  -6.1855843045  -3.5955244417
O  1.3970286044  -8.1612558223  0.3032903665
H  2.2003116612  -7.6594852008  0.1245966211
H  1.2331116633  -8.0501139838  1.2452524502
O  0.2568928070  -5.6431054888  1.6557208878
H  -0.5339174858  -5.3541622290  2.1437651046
H  0.7867514245  -4.8477241442  1.4398951424
O  -1.5802236895  -7.8793857841  0.4431582985
H  -2.4263482673  -7.3524515269  0.6063794506
H  -1.8519265927  -8.6213101465  -0.1059823547