82
charge=0, multiplicity=1, basis=def2-QZVPP, AUX_BASIS_CORR=rimp2-def2-QZVPP, mem_total=700000, SCF_ALGORITHM=GDM, xc_grid=000099000590, num_basis=3680, num_pairs=2782758, num_threads=128
C  5.2273630007  -0.4398339834  3.4163689995
C  4.0332815366  -0.9121564839  2.6706595168
N  2.8059466876  -1.1403277242  3.2428488280
C  3.8521057594  -1.1750161126  1.3494562959
C  1.9439296294  -1.5016737270  2.2787618322
N  2.5541132762  -1.5407500179  1.1226751896
C  -1.2586689980  -4.8320900190  -0.1483780057
C  -1.0014619350  -3.3482911289  -0.2833891858
O  0.1714321792  -2.9739139927  -0.0936556378
O  -1.9760331715  -2.6004831675  -0.5511845981
C  2.7623286813  2.3381674320  1.0103321241
O  2.0949264824  1.4468221036  1.5537554445
O  2.3909487945  2.9576127207  -0.0403059122
C  -0.7698689932  0.8250720117  3.5021080018
C  -1.4969593553  0.4807050472  2.2347408642
O  -1.9990412303  1.3826684837  1.5479535819
O  -1.5048951734  -0.7430032915  1.8941575643
C  4.8672629833  -2.5558209974  -2.8378369974
C  3.6662211955  -2.0893138951  -2.0611653036
O  2.7849540249  -2.9488965610  -1.7782516842
O  3.5792328482  -0.8999073620  -1.7034408205
C  -7.6319150050  -1.7002339982  0.5048539963
C  -6.2949199111  -1.0596367618  0.3966628734
N  -6.0627611507  0.2495633370  0.7452497928
C  -5.0781284513  -1.5297720227  0.0027858304
C  -4.7596056186  0.5198528805  0.5681602800
N  -4.1404453487  -0.5388468279  0.1145147861
Zn  -2.0650437952  -0.6849784272  -0.0021314262
Zn  1.5706934328  -1.6994290682  -0.7210694008
C  0.7536029096  0.6561053746  -2.4334617370
C  0.2118076367  1.2886752812  -3.7090259007
N  0.7551357658  -0.8096986713  -2.5599696467
O  -1.3240698381  0.4973199123  -1.3263138068
O  0.5482944155  0.1505773911  -0.1121532708
H  -7.9996740009  -1.7038489434  1.5324235510
H  -8.3783566799  -1.2021603635  -0.1164658253
H  -4.8150748547  -2.5156877508  -0.3421470204
H  -6.7475462893  0.8961066034  1.0967336771
H  -4.2938309275  1.4622364954  0.8033012809
H  6.0705946984  -0.3471855459  2.7350420270
H  5.0632091004  0.5399742831  3.8690033333
H  5.5232336660  -1.1285075368  4.2102461101
H  4.5660658009  -1.0925611293  0.5486263719
H  0.8957391778  -1.6987842926  2.4439973235
H  -0.5099206034  -5.3970031192  -0.7014632902
H  -2.2535541013  -5.1107289895  -0.4870882278
H  0.2636401048  1.0720663514  3.2501551151
H  -0.7616935636  -0.0056688689  4.2064486029
H  5.4203285075  -1.7231024761  -3.2660926702
H  5.5383395074  -3.1008755480  -2.1706337816
H  0.3459418150  2.3677260253  -3.7487476853
H  -0.8477358262  1.0675900919  -3.8380078541
H  1.3330667620  -1.0866590399  -3.3447588453
H  -0.1928492626  -1.1160526227  -2.7636743288
H  -1.1587196297  -5.1151252345  0.9007163841
H  4.5804553546  -3.2502999949  -3.6263772983
H  -7.5734375502  -2.7355570231  0.1763560869
H  -1.2013711859  1.7025121918  3.9801568926
H  1.2308295244  2.6172427272  -0.3482202206
H  1.0986643750  0.6814235175  0.5396826642
H  1.7885014785  0.9687945678  -2.2717019279
C  -0.0806193277  0.9037086151  -1.1459752791
H  0.7472501428  0.8887942456  -4.5725119983
C  4.1168770113  2.6932239926  1.5893020063
H  4.0941240157  2.6268942637  2.6751288175
H  4.4441081203  3.6850062669  1.2863149296
H  4.8471138265  1.9668444861  1.2279610457
N  0.0362679839  2.3294199805  -0.6254751079
H  -0.4771771877  2.3223727335  0.2655260722
C  -0.4861723269  3.4648334111  -1.3930309703
H  0.1195493350  3.5824071205  -2.2915872928
C  -1.9638059687  3.3724785319  -1.7737926701
C  -0.3129296072  4.7298177897  -0.5465931372
H  -2.5678012209  3.1833686661  -0.8878377442
H  -2.2952884811  4.3095488575  -2.2251450948
H  -2.1465994453  2.5696404382  -2.4806092534
O  -0.4470845283  4.7098874123  0.6470446022
C  0.0099980938  5.9800625557  -1.3180139675
H  -0.5318033084  6.0306350988  -2.2631078193
H  -0.1936770070  6.8714650317  -0.7297089187
H  1.0751071448  5.9624667003  -1.5629656701
H  2.5645005105  -0.9883894815  4.2062151172