59
charge=0, multiplicity=1, basis=def2-QZVPP, AUX_BASIS_CORR=rimp2-def2-QZVPP, mem_total=240000, SCF_ALGORITHM=GDM, xc_grid=000099000590, num_basis=2730, num_pairs=1911073, num_threads=64
N  42.5414599335  46.2105290833  84.6758329806
C  41.1497636069  45.9571991901  85.0907526770
C  40.2064358929  46.3205861410  83.9339594397
O  39.0270344929  46.0097187640  84.0266482310
C  40.7621230166  46.7883130052  86.3305609706
C  40.4630581713  48.2218110403  86.0506760673
N  41.3920388312  49.2369240925  86.0125782953
C  39.2747781057  48.7829721127  85.7111132848
C  40.8192764351  50.3463573030  85.5938296168
N  39.5244044898  50.1047198389  85.4420233004
N  40.8292086240  47.0350762810  82.9953170224
C  40.0552510876  47.6306674186  81.9260848007
C  40.5190213634  47.2640939628  80.5179784600
O  39.9090513676  47.6659507072  79.5499398194
C  40.1462799350  49.1482873501  82.0686645903
S  41.8716698201  49.6337037207  82.4401704748
N  41.6465020133  46.5273854728  80.4181020064
C  42.2688275982  46.2837419774  79.1464802585
C  43.0235677689  47.4612649329  78.5274355993
O  43.4489541415  47.3733215405  77.3969777770
N  43.2200906139  48.5402079208  79.3146062619
C  43.7887403997  49.7487390587  78.7724401206
C  45.2268967046  49.6650185159  78.2784196807
O  45.5606176760  50.2471506403  77.2741305554
N  46.1321321938  48.9272131236  78.9947655884
C  46.0481708167  48.5628937184  80.3733745770
C  46.1285908744  49.7419988835  81.3430667899
O  46.0147457287  50.8914776646  80.9837592947
N  46.3329074229  49.3663633493  82.6305509506
C  46.1537673049  50.2726530296  83.7348378645
C  44.7135786076  50.3251312632  84.2299538045
S  44.1469444476  48.6685288256  84.7469267401
Ni  42.4142564513  47.8569622245  83.5778732806
H  41.0079038255  44.9055168184  85.3568990051
H  39.8596477827  46.3374823571  86.7406748687
H  41.5280540966  46.6996907556  87.1061926010
H  42.4337830800  49.1074287174  85.9639280523
H  38.3046209287  48.3325364577  85.5965363116
H  41.3204476900  51.2757084462  85.3903213735
H  39.0084123256  47.3188194636  81.9898377199
H  39.8096055437  49.6487655586  81.1614719307
H  39.4882349605  49.4679777765  82.8793245104
H  42.0919030836  46.2280103326  81.2657850650
H  42.9756992366  45.4592010572  79.2524622333
H  41.5255022122  45.9679905293  78.4143316433
H  42.7513261127  48.6237922348  80.2073456373
H  43.2054507645  50.1110188031  77.9244341519
H  43.7422513798  50.5096026764  79.5533244515
H  47.0655014498  49.0316754686  78.6283954133
H  45.1174503922  48.0286202857  80.5730271755
H  46.8545752184  47.8572271809  80.5899731369
H  46.2315516644  48.3891857878  82.8546477421
H  46.8139961932  49.9636358907  84.5471675603
H  46.4686699338  51.2664537342  83.4171721634
H  44.6608315002  50.9994482609  85.0876090925
H  44.0621230701  50.7245654229  83.4523579784
H  38.8497783073  50.7761406422  85.1136394083
H  42.8594157028  45.4315690215  84.1034698895
H  43.1736676077  46.2314641672  85.4742397032