81
charge=1, multiplicity=1, basis=def2-QZVPP, AUX_BASIS_CORR=rimp2-def2-QZVPP, mem_total=700000, SCF_ALGORITHM=GDM, xc_grid=000099000590, num_basis=3687, num_pairs=2616121, num_threads=128
C  42.1817489984  36.5691029993  28.7622889982
H  42.0833703878  35.5392294951  28.4329359437
H  43.2179427703  36.8642254069  28.5941918685
N  41.8365142179  36.6382606722  30.1632065471
H  41.3542648897  35.8514368274  30.5589469848
C  41.9475672689  37.7359003386  30.9271569885
N  42.4142390182  38.8649725587  30.4195232819
H  42.5240438324  39.7066529793  31.0184207483
H  42.5558554064  38.9701842745  29.4315176893
N  41.6146315359  37.6872972320  32.2061031718
H  41.4527758579  38.5803800317  32.7369389626
H  41.3139658029  36.8224526227  32.6174097961
N  36.5038037145  42.6027145368  34.8702735774
H  35.6305418856  42.5760469678  34.3720988727
C  36.8884889831  41.7548909896  35.8690230036
C  37.5037277808  43.4737787224  34.6561082312
H  37.4646260619  44.2623746457  33.9217632253
N  38.5043217025  43.2325821754  35.4696529564
C  38.1369597146  42.1552020744  36.2274460921
H  38.7848380596  41.7281330274  36.9730896880
N  40.4995622853  43.3339729671  39.5484992715
H  40.1285171625  43.3215079611  40.4826454399
C  41.7153639973  42.8470880085  39.1558700042
C  39.8927500917  43.8551211162  38.4696535391
H  38.9191421284  44.3154229045  38.4989870894
N  40.6516701069  43.7223034775  37.4086062693
C  41.7995128098  43.1016862838  37.8235404277
H  42.6291586345  42.9192060837  37.1595078752
C  45.4603580045  44.2837820050  37.6466070781
H  45.2720269662  43.4835120391  38.3611386982
H  44.8937149027  45.1633476624  37.9438628208
S  44.8431945385  43.8751068750  35.9871630191
N  39.1051975907  47.9716624426  36.8912605064
H  39.3467526500  48.9199420590  37.1222909327
C  37.8695399961  47.4017360023  37.0098090011
C  39.9487063768  47.0547831583  36.3919459892
H  40.9973787390  47.2199739833  36.2101309149
N  39.3148786570  45.9251543038  36.1794995931
C  38.0160992481  46.1281622196  36.5629457994
H  37.2636687239  45.3614801046  36.5039228299
N  44.5116512331  45.2560723185  32.0497030480
H  44.5571121632  45.1437245183  33.0500429030
C  45.2351340081  44.5593590074  31.1230999227
C  43.6883104559  46.0880276246  31.3720904198
H  43.0105371638  46.7606391856  31.8726220062
N  43.8367243344  45.9695461786  30.0817505657
C  44.8005704619  45.0207767973  29.9138140238
H  45.1363048082  44.7234014006  28.9330193656
C  47.1526430124  40.4868779835  35.6804819941
C  46.6399254985  41.6837223178  36.1809698963
H  47.0378031248  42.0846689252  37.1044993048
C  45.6340993278  42.3634705477  35.5077528111
C  45.1537387737  41.8232383710  34.3026475944
O  44.1980377931  42.5240079389  33.6631876658
H  43.8074269800  42.0301506453  32.9143936192
C  46.6590403225  39.9604345455  34.5024136500
H  47.0522514492  39.0320339022  34.1111321738
C  45.6582958237  40.6292293817  33.8130896576
H  45.2631544727  40.2237142363  32.8889886494
N  41.2211996251  42.6002754868  34.7749679191
H  41.0470973214  41.7369564698  35.2853147156
C  40.8727456385  42.3614628671  33.3661133807
H  39.7943682082  42.1827879347  33.3359214072
C  41.1810201941  43.6027418524  32.5520497296
H  42.2468507693  43.8096157818  32.4567835555
H  40.7858478616  43.5207129336  31.5394696571
S  40.4377132002  45.0814766662  33.3212488263
C  41.5139453349  41.0577226264  32.8511577601
O  42.4559382356  41.1237274210  32.0224158034
O  41.0249121884  40.0211865202  33.3340492834
H  42.2274342879  42.7699268170  34.8316826433
Fe  40.2426788815  44.2643758226  35.5193623904
O  41.8735293749  45.2632858938  35.3529079854
O  41.7103835791  45.8385963848  34.0411803842
H  41.5269657188  37.1816241561  28.1385368870
H  36.2655405007  40.9527233997  36.2232053704
H  42.4048437577  42.3844550763  39.8395566468
H  46.5200804378  44.5318850687  37.6424756961
H  37.0137142125  47.9349566752  37.3845048521
H  45.9767172300  43.8301473407  31.3990552559
H  47.9390320587  39.9792440054  36.2218666703