81
charge=1, multiplicity=5, basis=def2-QZVPP, AUX_BASIS_CORR=rimp2-def2-QZVPP, mem_total=700000, SCF_ALGORITHM=GDM, xc_grid=000099000590, num_basis=3687, num_pairs=2555228, num_threads=128
C  42.1307910023  36.5518060008  28.7228269998
H  41.9721153178  35.5574772893  28.3163150726
H  43.1621887630  36.8278586611  28.5009125680
N  41.8911708406  36.5127573932  30.1439397899
H  41.4098441458  35.7130844798  30.5140394710
C  42.0639162906  37.5639504284  30.9580404641
N  42.5356229980  38.7029883970  30.4815277955
H  42.6704555183  39.5263849481  31.1048515032
H  42.6305178793  38.8488284565  29.4930544631
N  41.7953662471  37.4571102541  32.2500401197
H  41.6050928139  38.3369325625  32.7909288595
H  41.4562566567  36.5874798334  32.6196638722
N  36.4933798748  42.5676105322  34.8849861020
H  35.6166763957  42.5580679057  34.3916557741
C  36.8684809925  41.7043359913  35.8767070023
C  37.5031136650  43.4260900215  34.6728303411
H  37.4765330108  44.2174880898  33.9412613801
N  38.5045959863  43.1624316930  35.4760658733
C  38.1239880374  42.0897437246  36.2336616722
H  38.7699442509  41.6606423265  36.9812426451
N  40.8804938820  43.5629637181  39.6945298862
H  40.5974578821  43.7123546774  40.6479803871
C  41.8924280005  42.7446429908  39.2732799984
C  40.3425740709  44.1476469379  38.6146578940
H  39.5281239470  44.8515793924  38.6624032814
N  40.9505372213  43.7464913130  37.5239184395
C  41.9258563225  42.8722118709  37.9212749053
H  42.6151707943  42.4236879042  37.2262854142
C  45.4361910077  44.2710440090  37.6621080160
H  45.2146769804  43.4876939532  38.3855813331
H  44.8923763942  45.1712496345  37.9392731251
S  44.8314723483  43.8611079553  35.9964381261
N  38.9423967971  48.1216626716  36.5874124535
H  39.0817397261  49.1172980481  36.6187076187
C  37.8544949906  47.4448670143  37.0611290075
C  39.7886370416  47.2297742208  36.0481062396
H  40.7373984123  47.4777505069  35.6000078951
N  39.2960639157  46.0196799615  36.1527238611
C  38.0883549613  46.1372269026  36.7807690505
H  37.4604879590  45.2865215787  36.9873168034
N  44.2802629061  45.1833037333  31.7343691712
H  44.1571533722  45.2252924889  32.7336242692
C  45.2590980201  44.5045109831  31.0643709881
C  43.4938190489  45.7726109199  30.8043039917
H  42.6441881536  46.3804408691  31.0698287195
N  43.9013360877  45.5141412522  29.5928653773
C  45.0034403703  44.7261194677  29.7419036809
H  45.5592895721  44.3638879896  28.8916427970
C  47.1735799940  40.4889640093  35.7017249875
C  46.6338761251  41.6744262796  36.2030327938
H  47.0042412761  42.0675663564  37.1412925233
C  45.6365431824  42.3540344383  35.5143132929
C  45.1948292311  41.8221911193  34.2908472320
O  44.2458074754  42.5108721974  33.6262426086
H  43.8612671692  41.9813870345  32.8973468652
C  46.7155271723  39.9714412318  34.5058589074
H  47.1281182461  39.0522958932  34.1127967816
C  45.7250239858  40.6382817776  33.8019722471
H  45.3577891555  40.2398937821  32.8637710367
N  41.3655973685  42.4426794967  34.6730943955
H  41.2278112484  41.6135534380  35.2444906181
C  40.9211130486  42.1243861909  33.3103198123
H  39.8488019890  41.9195738810  33.3670048706
C  41.1503294511  43.2850835426  32.3559604894
H  42.1995124073  43.5639901930  32.2607852402
H  40.8158945844  43.0118132936  31.3543399497
S  40.2543797505  44.7987097724  32.8191251661
C  41.5897088186  40.8186903162  32.8502461988
O  42.5928487711  40.8933030076  32.0937126631
O  41.0886433457  39.7792823987  33.3115333683
H  42.3704774358  42.6217489851  34.6570606791
Fe  40.4378688033  44.2875118390  35.4886688214
O  41.8150770762  45.4606217984  34.7220396719
O  41.4279174305  45.8002630104  33.3864112631
H  41.4547431552  37.2338818912  28.2019561236
H  36.2334550517  40.9114407119  36.2302272882
H  42.4915275914  42.1644222244  39.9527378819
H  46.5023201333  44.4899038947  37.6672194264
H  37.0247641388  47.9385462767  37.5361686355
H  46.0285851640  43.9496149314  31.5721011365
H  47.9522066937  39.9851466010  36.2576813270