81
charge=1, multiplicity=5, basis=def2-QZVPP, AUX_BASIS_CORR=rimp2-def2-QZVPP, mem_total=700000, SCF_ALGORITHM=GDM, xc_grid=000099000590, num_basis=3687, num_pairs=2542456, num_threads=128
C  42.1851389995  36.5578149967  28.7723749952
H  42.0454200625  35.5700577373  28.3431826746
H  43.2575916877  36.7016403591  28.9050870058
N  41.4932309836  36.6146925333  30.0349579202
H  40.7759235314  35.9322363368  30.2026748562
C  41.5713368521  37.6453720403  30.8895156792
N  42.3343834174  38.6902384461  30.6083255394
H  42.4107663764  39.4818920228  31.2761854097
H  42.6847760063  38.8345654226  29.6787758147
N  40.9162715202  37.6074406830  32.0360734815
H  40.7147844897  38.5239400979  32.5231358832
H  40.3919177773  36.7891253833  32.2872264220
N  36.6330110714  42.5280461931  34.7688010501
H  35.8757916881  42.4028702203  34.1186725031
C  36.8885279964  41.7527300080  35.8658450091
C  37.5847499382  43.4677628848  34.6868306537
H  37.6699644333  44.1950399376  33.8936246490
N  38.4310095641  43.3397269800  35.6811815285
C  38.0102274516  42.2749272912  36.4268529390
H  38.5327881588  41.9516393423  37.3118231925
N  41.6024632065  44.0348905390  39.6737627317
H  41.7184613480  44.4298538382  40.5916696953
C  41.8242469611  42.7306950379  39.3236189126
C  41.2030532431  44.6983776912  38.5795861232
H  40.9566475329  45.7473309739  38.5725063778
N  41.1556110474  43.8917600889  37.5459905080
C  41.5510543470  42.6618874444  37.9965619325
H  41.6420852951  41.8072258629  37.3513981416
C  45.4140430233  44.1992680192  37.6983570236
H  45.3137125499  43.4415793980  38.4739762809
H  44.8596120069  45.0870329144  37.9949478470
S  44.6558062440  43.6775053775  36.1329436579
N  38.4619757752  48.1109161709  36.0981903574
H  38.2578833368  49.0313638179  35.7468997608
C  37.8264670791  47.4830289308  37.1347229676
C  39.3978672527  47.2806894519  35.6166672804
H  40.0300157815  47.5082736855  34.7726639500
N  39.4022732475  46.1591000173  36.2950482714
C  38.4240696434  46.2694340239  37.2443396390
H  38.1926246573  45.4680118675  37.9259098995
N  44.3121310513  44.9695681398  31.9799440685
H  44.2111310300  44.6209265660  32.9187585528
C  45.2761089140  44.5957370117  31.0881550731
C  43.5015732331  45.8521684809  31.3513211167
H  42.6332333460  46.2751108876  31.8337837902
N  43.8885720142  46.0699527162  30.1250305195
C  44.9959130918  45.2948353213  29.9495392548
H  45.5344703130  45.2814782314  29.0152158568
C  47.1689820289  40.4525059797  35.6728110069
C  46.5986635709  41.6071880039  36.2117954920
H  47.0076281490  42.0212746593  37.1246840606
C  45.5203013208  42.2256804942  35.5918126527
C  45.0234679364  41.6708013334  34.4001630412
O  44.0024148151  42.3155588025  33.8058779576
H  43.5291100986  41.7666957194  33.1284621265
C  46.6559461336  39.9074581438  34.5112512574
H  47.0899602948  39.0109289782  34.0899112108
C  45.5840884281  40.5164282693  33.8757390246
H  45.1794397532  40.0979435552  32.9621334549
N  41.1598884035  42.4020380971  34.7959799015
H  40.8921159430  41.5613579932  35.2986615717
C  40.6808792912  42.2706185544  33.4075947908
H  39.5931935029  42.2070042912  33.4562113019
C  41.0525833694  43.4926852400  32.5863122438
H  42.1212137381  43.5274852908  32.3848872978
H  40.5651382141  43.4216536345  31.6132221895
S  40.5250718515  45.0442487698  33.3932424668
C  41.1611406208  40.9293016321  32.8405023380
O  42.3188270086  40.8485742956  32.3444495892
O  40.3616397626  39.9846008025  32.9698333169
H  42.1798709027  42.4316457077  34.7963277306
Fe  40.3425689126  44.3228593165  35.6001125038
O  42.6757148324  46.2763451538  35.9564175493
O  43.2377533831  46.7049554584  35.0013096183
H  41.8108860378  37.2887225373  28.0514537226
H  36.2655298374  40.9230921157  36.1494062390
H  42.1613750196  41.9884703999  40.0253302162
H  46.4614513342  44.4680429166  37.5748505205
H  37.0253917394  47.9415299171  37.6873252996
H  46.0577514261  43.9001586000  31.3399689843
H  48.0103662295  39.9931180040  36.1727265040