89
charge=-2, multiplicity=1, basis=def2-QZVPP, AUX_BASIS_CORR=rimp2-def2-QZVPP, mem_total=700000, SCF_ALGORITHM=GDM, xc_grid=000099000590, num_basis=4112, num_pairs=2923105, num_threads=128
H  1.8678769988  7.9357590155  -0.1561120012
C  0.8048711474  8.2383976946  -0.1406528858
O  0.4669003174  9.3972923319  -0.2809106462
N  -0.0067620042  7.1934084568  0.0469481492
H  -1.0012001340  7.3396223969  0.0748531162
H  0.3155686423  6.2349176732  0.1560751989
H  5.7280170604  -2.1564230791  -2.8167689333
C  5.3234924154  -1.3844310421  -3.5346317537
O  6.0529920940  -0.7496084387  -4.2688307973
N  3.9847675285  -1.2895288198  -3.4490947626
H  3.5530607913  -1.8550132517  -2.7144220000
C  3.1155428989  -0.3125249995  -4.0613912553
H  2.8679111465  0.4705141386  -3.3359531812
H  3.5557019156  0.2173271320  -4.9224240784
C  1.8266742134  -0.9515864898  -4.5873781044
O  1.7571784271  -2.1081613785  -4.9476475037
N  0.7919529940  -0.0832722939  -4.6846480993
H  0.8472204087  0.8379915920  -4.2466277211
C  -0.4473695962  -0.4529358247  -5.3204824012
H  -0.9687968536  0.4800297776  -5.5565561710
H  -0.2479829807  -0.9462310054  -6.2927459744
C  -1.4174859974  -1.2858571175  -4.4431989035
O  -2.0451762474  -2.2218191654  -4.8837712342
N  -1.5619937057  -0.8341317718  -3.1621554423
H  -1.0842785849  0.0116123023  -2.8860529895
C  -2.4401987437  -1.4187949622  -2.1608943339
H  -2.4904140794  -0.6898623009  -1.3465555365
H  -3.4858310166  -1.5735809774  -2.4886309977
C  -1.9323590815  -2.7272082610  -1.5337905482
O  -2.6935212999  -3.5328110562  -1.0350669481
N  -0.5858492947  -2.8568325451  -1.5134694791
H  -0.0710397427  -2.1866178196  -2.0638759037
C  0.1038325221  -4.1023173046  -1.2526692650
H  -0.4138135381  -4.9108634495  -1.7804654245
C  1.5255981158  -4.0134048587  -1.8087738873
H  1.4787736705  -3.7284443359  -2.8623250113
H  1.9576498574  -5.0123633867  -1.7673315148
S  2.6521795638  -2.9149151542  -0.8832298400
C  0.1972299283  -4.5700708504  0.2006072614
O  0.5148355252  -5.7241377937  0.4309147255
N  -0.0614534988  -3.6744609724  1.1675650805
H  -0.2956278548  -2.7294701750  0.9107771545
C  0.0860300398  -3.9654243045  2.5729024991
H  -0.0630422589  -3.0233795440  3.1001991695
C  -0.9281319528  -4.9966690777  3.0499815683
H  -0.6710557045  -5.9843662052  2.6633383095
H  -0.9144091535  -5.0481710654  4.1410207505
O  -2.2520051195  -4.6554954767  2.6725529878
H  -2.2533628831  -4.5059750456  1.7150272961
H  1.0907350027  -4.3172169394  2.8386959402
H  0.5892541140  3.0106485380  4.0878607420
C  0.5720985863  2.2580006545  4.8916574003
O  0.9778175488  2.4702339086  6.0152198492
N  0.0713384212  1.0843295900  4.4565089797
H  -0.3947417064  1.0837881965  3.5586822449
C  -0.1205328586  -0.0379751673  5.3331921253
H  -0.0863215507  -0.9600325460  4.7558130951
H  0.6742069326  -0.0561946578  6.0776363003
H  -1.0781961044  -0.0002989607  5.8616695811
H  -3.8845652637  0.4255211165  5.5965110901
C  -4.2342098971  -0.3078601319  6.3343334727
H  -3.3500154736  -0.6629075151  6.8809006474
H  -4.8621380112  0.2307669275  7.0481380050
O  -4.9960384450  -1.3420005950  5.7790789938
H  -4.4724360661  -1.7717037489  5.0934833139
H  -4.1081044599  0.1372885369  1.5406156585
C  -4.2028262506  -0.4992767686  2.4152064496
H  -4.2107862028  0.1349493085  3.3019313973
H  -5.1364790054  -1.0623629815  2.3973739639
C  -3.0896049135  -1.4963088157  2.4717889239
O  -3.2766138559  -2.3776414955  3.4616547720
O  -2.1596681702  -1.5426022421  1.7125273460
H  -4.2128020145  2.8140470247  1.8254980190
C  -3.3433728526  2.7322713540  1.1670671771
S  -1.7920552581  2.5779950969  2.0051358776
C  -3.3878007790  2.7651872759  -0.1663813682
S  -1.9077223851  2.6240096610  -1.1231749796
H  -4.2796830129  2.9100200077  -0.7669319958
Cu  1.7755656275  -0.9513437533  -0.4349807092
S  1.4738972968  1.1657685438  -0.0180403463
Mo  -0.1058716211  2.7484674052  0.3600946001
O  3.1873507653  1.1552148240  3.0840964346
O  0.4605369015  4.3257962933  0.3668203257
C  2.6024844841  0.1748793775  2.9103853282
O  2.0616126401  -0.8408012122  2.7822733161
H  -2.7744113389  -3.2172568169  3.2726959803
O  0.6960678335  2.3484597625  -3.2088079722
H  -0.1452973783  2.7767967958  -3.0197304031
H  1.0257521829  2.1200575324  -2.3242250284