116
charge=-1, multiplicity=1, basis=def2-QZVPP, AUX_BASIS_CORR=rimp2-def2-QZVPP, mem_total=700000, SCF_ALGORITHM=GDM, xc_grid=000099000590, num_basis=5135, num_pairs=3937547, num_threads=128
C  6.3415739983  0.7653779958  4.9408399987
C  5.9263819450  -0.6776186614  5.0742405439
O  6.3152630617  -1.3707183954  5.9937502515
N  5.1123814691  -1.1069809785  4.0906278105
C  4.6047080054  -2.4482759956  4.0139110031
C  3.0977272449  -2.4941169857  3.8172181416
C  2.6381740314  -1.9669519422  2.4700772464
O  3.3984182583  -1.3908241392  1.7137996123
O  1.3842449970  -2.2203715364  2.2618624975
C  -5.3791679412  -2.0780330567  -1.0426470014
C  -4.3496046521  -1.6555526743  0.0255123314
S  -2.6044344160  -2.0089168473  -0.3516553393
C  8.3919369999  -0.5159780002  -2.9666310011
C  7.2524991855  -0.9409815866  -2.0952832582
C  7.0218126623  -0.5840876894  -0.7964467264
C  6.1644595554  -1.8012163622  -2.4634216422
N  5.8690483715  -1.1651126392  -0.3395581773
C  5.3167285959  -1.9082198784  -1.3418132308
C  5.8148903745  -2.4830699551  -3.6348118778
C  4.1317335895  -2.6407378048  -1.3596755225
C  4.6539894000  -3.2286928190  -3.6522881998
C  3.8177539968  -3.3026979538  -2.5247739714
C  2.5560210402  5.7223850043  -2.6660479279
C  2.2080606881  5.4839379173  -1.2030949197
N  1.2717721698  4.3869605769  -1.0719255883
C  0.0397435392  4.4425724745  -0.5816736584
N  -0.2780887977  5.4098246714  0.3101521574
N  -0.8884829901  3.6260307148  -1.0124210241
C  -2.7004700002  2.5057430020  4.4968110078
C  -3.7107237436  1.7439709551  3.6489887396
O  -4.8534544438  2.5689011251  3.5342411101
C  -3.1508298644  1.3646059651  2.3003438957
S  -1.6179866574  0.5151612668  2.2613859952
C  -3.7606611048  1.7008216654  1.1577628646
S  -2.9765047420  1.3532581219  -0.3796309034
C  -5.1206020251  2.3281529650  1.1507921623
C  -5.7420331488  2.1629213532  2.5278104507
C  1.5346429437  2.2881099481  -4.1562171040
C  2.2513004604  1.4367784311  -3.1246671249
O  3.4204448608  2.1540563621  -2.7699497748
C  1.4129031941  1.1366803927  -1.9001498661
S  -0.2834719584  0.6819659820  -2.1023151999
C  1.9172766560  1.2770120495  -0.6607286200
S  0.9121913672  1.1252063388  0.7554195601
C  3.3642641748  1.6092024811  -0.4327196002
C  4.1339987986  1.5145539485  -1.7364402390
W  -1.1083922244  -0.0467811467  0.0387301001
O  0.1098804883  -1.7298552290  0.0819808148
C  0.6594782433  -3.8782294617  -0.7174721188
C  0.3834014063  -2.5838598907  -0.8991541389
C  -5.6656122626  -3.5997558657  -1.0342577701
O  -6.7790553954  -4.0295885601  -0.7987349199
N  -4.6196354833  -4.4113857122  -1.2904534274
N  -6.6128589384  -1.3789398819  -0.7430035565
C  -7.6093045845  -1.1749178803  -1.6441517362
O  -7.4741061039  -1.3112876647  -2.8393588793
C  -4.7596860087  -5.8523659626  -1.2292179987
C  -8.9338220323  -0.7347909893  -1.0258399997
H  6.1116249774  1.2946670145  5.8646663650
H  2.5942048748  -1.9259760842  4.6049827426
H  2.7446618990  -3.5228330731  3.9224212439
H  4.8674008165  -2.9509795193  4.9426680698
H  4.8398777895  -0.4807540123  3.3528416540
H  8.0409580084  0.0208267453  -3.8506118511
H  8.9719056467  -1.3717975928  -3.3189519277
H  7.6106739963  0.0518537648  -0.1534292512
H  5.4440179334  -1.0471852302  0.5647563074
H  6.4421635175  -2.4228822327  -4.5163080612
H  4.3726701595  -3.7581175200  -4.5537277506
H  3.4644549010  -2.6706824774  -0.5105125854
H  2.8991170165  -3.8704917168  -2.5700199291
H  3.0194096816  4.8369424935  -3.0995811164
H  1.6654097958  5.9674175527  -3.2438213545
H  3.1117901130  5.2616351120  -0.6314235516
H  1.7642397580  6.3815333106  -0.7726320270
H  1.5454151840  3.4938107254  -1.4747100090
H  -1.2153219108  5.3914579637  0.6764075995
H  0.4234598597  5.6473586278  0.9905538997
H  -1.6644864300  3.3217330341  -0.4272061576
H  -0.6557390114  2.8843478301  -1.6801004948
H  -4.5874302379  -2.1443261819  0.9757491856
H  -4.4665507980  -0.5862972208  0.1751996781
H  -2.3752357684  3.4091845100  3.9795625545
H  -1.8228589802  1.8916506218  4.6867789924
H  -3.9822513611  0.8173891356  4.1834913528
H  -5.7500039119  1.8433921675  0.3976726355
H  -6.0412678741  1.1126005867  2.6650216506
H  1.1748809883  3.2283006357  -3.7340536393
H  0.6699149957  1.7600567634  -4.5541443198
H  2.5413236518  0.4847354095  -3.5992575217
H  3.7727477029  0.9070683489  0.2964030080
H  4.3097593214  0.4628298703  -1.9918189339
H  0.6360950144  -4.3449624967  0.2578625461
H  -3.1427130125  2.7900726113  5.4527402737
H  -5.0702543352  3.3872499970  0.8737650770
H  -6.6405135339  2.7755901919  2.6347573711
H  2.2062511629  2.5213194301  -4.9832658704
H  3.2603929716  6.5499294751  -2.7554362359
H  5.1096126679  2.0001375537  -1.6671222033
H  3.4606528906  2.6067396212  0.0160064676
H  7.4217100983  0.8192075529  4.8038433345
H  5.8643994917  1.2935997119  4.1159692504
H  9.0754688993  0.1441742021  -2.4323630726
H  5.0994041140  -2.9957319074  3.2059035412
H  -5.0301137845  -1.7636159998  -2.0275280790
H  0.9775993445  -1.9232055200  1.3806379892
H  0.8841973647  -4.5025777602  -1.5700007582
H  -9.5358924012  -1.6206421843  -0.8180405000
H  -8.8080438700  -0.1857998385  -0.0922664188
H  -9.4769572960  -0.1128010012  -1.7328855209
H  0.3843003311  -2.1624192568  -1.9059466689
H  -3.6915382071  -4.0083391503  -1.3223783669
H  -6.8915412430  -1.4204940321  0.2239122338
H  -5.5201603962  -6.1998122813  -1.9277877389
H  -3.8069900440  -6.3011401330  -1.5004045039
H  -5.0349109932  -6.1984583423  -0.2309356866