81
charge=1, multiplicity=3, basis=def2-QZVPP, AUX_BASIS_CORR=rimp2-def2-QZVPP, mem_total=700000, SCF_ALGORITHM=GDM, xc_grid=000099000590, num_basis=3687, num_pairs=2567179, num_threads=128
C  42.1580729963  36.5975770058  28.7884060013
H  42.0017089164  35.5957857444  28.3997837257
H  43.2320498153  36.7849964662  28.7716543644
N  41.6365950062  36.6568794594  30.1326461898
H  41.0183087612  35.9215739069  30.4246875305
C  41.7592467607  37.7189836467  30.9422527534
N  42.4065571330  38.7975033483  30.5344724185
H  42.5202273335  39.6167405127  31.1653549976
H  42.6665719408  38.9097778349  29.5715284270
N  41.2578748784  37.6812234852  32.1657581895
H  41.1103316749  38.5775669614  32.6907950518
H  40.8248852026  36.8433740731  32.5090974504
N  36.5254145271  42.6449990212  34.8174516398
H  35.6651076896  42.5926810171  34.2986930526
C  36.8959119720  41.8263739896  35.8474040119
C  37.5137180641  43.5287189467  34.6066569714
H  37.4835998533  44.2976642841  33.8515235105
N  38.4967724268  43.3229235532  35.4501507659
C  38.1272882416  42.2606421444  36.2299072046
H  38.7626982184  41.8745806317  37.0083962724
N  40.7388552136  43.4604089259  39.7219751076
H  40.4367160684  43.5417131441  40.6775562557
C  41.8421269915  42.7843270166  39.2807099839
C  40.1428160138  44.0178501891  38.6550335354
H  39.2525792778  44.6214367850  38.7231966637
N  40.7984732363  43.7341797312  37.5573507497
C  41.8665954469  42.9675959074  37.9334706263
H  42.6098891820  42.6332856476  37.2282533361
C  45.4201479947  44.2935069981  37.6556859907
H  45.2193142884  43.4990913301  38.3730612956
H  44.8582940927  45.1792186183  37.9431932895
S  44.8115858432  43.8827126044  35.9920383240
N  38.9353366255  48.0883671811  36.7306139606
H  39.0853101272  49.0787756247  36.8197879496
C  37.8157530219  47.4047119853  37.1084729964
C  39.8028132826  47.2159912075  36.1984520560
H  40.7774690540  47.4699078528  35.8161185660
N  39.2946622662  46.0053534141  36.2179378285
C  38.0525756080  46.1086153903  36.7826447656
H  37.4045780954  45.2601087163  36.9206582091
N  44.5005175799  45.2162535037  31.8122842244
H  44.4063609599  45.1313438884  32.8115989646
C  45.3235719982  44.4796830210  31.0088910026
C  43.8043874200  46.0543227530  31.0112884941
H  43.0826823561  46.7560703052  31.3973422017
N  44.1257118744  45.9020408007  29.7563411503
C  45.0745577149  44.9240394819  29.7420218855
H  45.5335801889  44.5951224076  28.8231564684
C  47.1450820211  40.5067769815  35.6842090157
C  46.6218700220  41.7005121140  36.1834112188
H  47.0179566927  42.1062932262  37.1056358491
C  45.6075300016  42.3719381383  35.5124659952
C  45.1314095351  41.8247695131  34.3088614403
O  44.1709342059  42.5116923518  33.6590107919
H  43.7441808385  41.9710047846  32.9599743734
C  46.6528503393  39.9732925964  34.5091314441
H  47.0527824164  39.0474868180  34.1185121149
C  45.6453965231  40.6331553412  33.8219702627
H  45.2533095627  40.2227516329  32.8990009197
N  41.2646729405  42.7502823075  34.6185689191
H  41.1060879427  41.9209084718  35.1884444538
C  40.8444603418  42.4194631223  33.2439663838
H  39.7575110049  42.3180522219  33.2646919346
C  41.2152069415  43.5249346705  32.2733163660
H  42.2816763838  43.5676866769  32.0540842114
H  40.7198641532  43.3537385678  31.3148210864
S  40.7191872532  45.1825696036  32.7955261168
C  41.3956259901  41.0405437167  32.8336045511
O  42.4572409477  40.9970026446  32.1580059851
O  40.7380717258  40.0661435828  33.2338525323
H  42.2759490253  42.9041963972  34.6298371455
Fe  40.2940838010  44.3830443708  35.4764594631
O  41.7222585711  45.5466645686  35.1249412801
O  42.0020295888  45.6430621137  33.7250196051
H  41.6592045094  37.2966040070  28.1131952109
H  36.2759815992  41.0247523111  36.2075227403
H  42.5018639874  42.2534024964  39.9441956556
H  46.4816213457  44.5336209639  37.6557264151
H  36.9654834877  47.8836931583  37.5614720109
H  46.0007630398  43.7400473282  31.3993045346
H  47.9372606247  40.0081779806  36.2255116305