81
charge=1, multiplicity=3, basis=def2-QZVPP, AUX_BASIS_CORR=rimp2-def2-QZVPP, mem_total=700000, SCF_ALGORITHM=GDM, xc_grid=000099000590, num_basis=3687, num_pairs=2650323, num_threads=128
C  42.1984900025  36.5594120010  28.7769399986
H  42.1888010577  35.5098670745  28.4989192430
H  43.1964048661  36.9414853876  28.5603540440
N  41.8927623268  36.6648535858  30.1849485959
H  41.4724785634  35.8669749242  30.6266640219
C  41.9379344182  37.8044851409  30.8942368441
N  42.2895982052  38.9410686838  30.3177604253
H  42.3470105238  39.8214086216  30.8741368352
H  42.3632010491  39.0108822905  29.3191141164
N  41.6547254789  37.7866635610  32.1860018538
H  41.4765339881  38.6834800030  32.7059156064
H  41.4817077641  36.9157654466  32.6538791216
N  36.5299563758  42.6113243309  34.8308141843
H  35.6748408540  42.5458263662  34.3051502847
C  36.9025420360  41.8056710293  35.8691940029
C  37.5089298443  43.4981812306  34.6098879267
H  37.5059842685  44.2382342108  33.8259833920
N  38.4904262111  43.3082067534  35.4619150196
C  38.1251761545  42.2545317067  36.2573057812
H  38.7529870570  41.8822751887  37.0481074852
N  40.9634633232  43.7408148030  39.5493064206
H  40.8858147495  44.0443740208  40.5049792983
C  41.7293819947  42.7051660129  39.0914039773
C  40.3565624778  44.3092729214  38.5011980520
H  39.7189594025  45.1713669507  38.5881064915
N  40.6763159773  43.6873060591  37.3909401854
C  41.5481386533  42.6901612510  37.7462330513
H  42.0297690372  42.0432263815  37.0352222595
C  45.4345129920  44.4046029821  37.4231288852
H  45.3244711659  43.6901715041  38.2374311554
H  44.8668665409  45.3022721007  37.6574727288
S  44.6873417559  43.8051136799  35.8855752985
N  38.8841076735  48.0744823443  36.4189838945
H  38.9622960352  49.0762109146  36.3687416037
C  37.9139410450  47.3711849495  37.0789209692
C  39.7137218704  47.2048066511  35.8293374869
H  40.5599126213  47.4927611828  35.2290536769
N  39.3274117570  45.9757659224  36.0786099396
C  38.1962205033  46.0632977704  36.8472674085
H  37.6536605491  45.1944754247  37.1790553774
N  44.5940054526  45.1902206111  32.3495520315
H  44.8155725532  44.9616486716  33.3065355233
C  45.1943029476  44.6884409977  31.2290681559
C  43.5745114441  45.9766344002  31.9410341896
H  42.9149810294  46.4720351721  32.6373495913
N  43.4877935345  46.0197679229  30.6394908760
C  44.4951170235  45.2228494653  30.1843317083
H  44.6688814968  45.0783080245  29.1297959100
C  47.1104229819  40.4941840279  35.6054800069
C  46.5668674481  41.6816592381  36.0968378679
H  46.9635375240  42.1097641096  37.0087043962
C  45.5328861280  42.3197256802  35.4264884470
C  45.0481666779  41.7430881189  34.2395544724
O  44.0527837253  42.4080085315  33.6222241900
H  43.7329260458  41.9751708527  32.8098832972
C  46.6183733541  39.9371688333  34.4404329047
H  47.0375619475  39.0177256640  34.0550217580
C  45.5844124873  40.5617952196  33.7562911976
H  45.1905663292  40.1311126704  32.8427666278
N  41.1360744727  42.6730542031  34.6757201044
H  40.9284903460  41.8152724922  35.1846853165
C  40.7343055020  42.4358044819  33.2706851821
H  39.6626023198  42.2221791936  33.2827043984
C  40.9589472032  43.7177641897  32.5069734687
H  42.0140183520  43.9822342952  32.4508406003
H  40.5953522431  43.6381063328  31.4834746318
S  40.0256929488  45.0382581613  33.3565279312
C  41.4045593477  41.1497195678  32.7518077586
O  42.2433943670  41.2242258135  31.8227540362
O  41.0376303033  40.1118440612  33.3368252414
H  42.1552670198  42.7706332752  34.6956876381
Fe  40.2799743059  44.3401524166  35.4509409490
O  41.9687777899  45.1566134449  35.4544996285
O  42.2446789790  45.8321637145  36.5097857586
H  41.4705271489  37.0771534099  28.1482569813
H  36.2880469533  41.0026506311  36.2359119386
H  42.3320321092  42.0915189529  39.7369264889
H  46.4832971542  44.6663806524  37.2969704009
H  37.1189603210  47.8454894700  37.6264326523
H  46.0446823178  44.0304047896  31.2735816630
H  47.9200532270  40.0187214516  36.1417352088