89
charge=-2, multiplicity=1, basis=def2-QZVPP, AUX_BASIS_CORR=rimp2-def2-QZVPP, mem_total=700000, SCF_ALGORITHM=GDM, xc_grid=000099000590, num_basis=4112, num_pairs=2942687, num_threads=128
H  99.2923499979  151.2130620002  146.9388390043
C  98.2027646953  151.2400328051  146.7474663512
O  97.6316999191  152.2767155185  146.4785005176
N  97.6377248517  150.0312019861  146.8497526485
H  96.6485441858  149.9226784440  146.7017796069
H  98.1395242076  149.1849837707  147.0760314457
H  103.1525310091  141.1208559858  144.2782140037
C  102.6651413249  142.0489084678  143.9000061413
O  103.2144994198  143.1335800338  143.9637458924
N  101.4559897868  141.8126675756  143.3706848385
H  101.0298982210  140.9128302608  143.5898860473
C  100.5569898713  142.8691794317  142.9748661705
H  100.3613533078  143.5653127479  143.7947499277
H  100.9801449815  143.4946360126  142.1726220053
C  99.2524389402  142.2793479532  142.4602166496
O  99.1430709653  141.1407983399  142.0618468719
N  98.2179519593  143.1593787724  142.4223825692
H  98.3433523211  144.0818789802  142.8062690080
C  96.9703129239  142.8155999896  141.7796390744
H  96.4552280370  143.7538613526  141.5555475267
H  97.1764700023  142.3310389928  140.8021579786
C  95.9884970328  141.9689339006  142.6344095901
O  95.3047892038  141.1064721103  142.1312441220
N  95.9059711447  142.3246141247  143.9457885506
H  96.4223524280  143.1297793430  144.2679927098
C  94.9935242126  141.7610457008  144.9299421395
H  94.9981936872  142.4653138277  145.7676492533
H  93.9385150310  141.7036999872  144.6064199974
C  95.4121712105  140.4058660675  145.5171487778
O  94.6081675711  139.6709090592  146.0560725696
N  96.7417935758  140.1516701452  145.4655384083
H  97.2743944699  140.7484457098  144.8514137411
C  97.3319776210  138.8626254377  145.7591852007
H  96.6276559779  138.0863726004  145.4390643067
C  98.6131311299  138.6841656062  144.9432407364
H  98.3850821524  138.8788688113  143.8922225651
H  98.9095259836  137.6392399486  145.0228038695
S  100.0411383777  139.6822542542  145.4820526003
C  97.6149461752  138.5280759028  147.2328133430
O  97.9490757618  137.3915300455  147.5177081135
N  97.4358679743  139.4942894300  148.1507780767
H  97.1364458827  140.4072559549  147.8480657315
C  97.5266078623  139.2819071812  149.5801885855
H  97.3444489233  140.2527944394  150.0404780261
C  96.5096271840  138.2638351168  150.0787888819
H  96.7817290069  137.2627319636  149.7396093286
H  96.5135008760  138.2589926477  151.1711956620
O  95.1852047910  138.5721521937  149.6792928476
H  95.1784078947  138.6974424893  148.7191509606
H  98.5150809757  138.9598969860  149.9336549562
H  98.0136320167  146.2882059989  151.1829919966
C  97.7589956873  145.7009595717  152.0805149448
O  97.5786383566  146.1965385279  153.1770336285
N  97.7015678913  144.3961899165  151.7824729877
H  97.8359135593  144.1465759234  150.8084901913
C  97.3270740649  143.3887555339  152.7288737578
H  97.8896752045  142.4738540012  152.5421408218
H  97.5491319585  143.7390400424  153.7344650876
H  96.2606678712  143.1467451171  152.6781739405
H  93.2298630048  143.9017015621  152.4557262633
C  92.9911037332  143.1694927376  153.2366088276
H  93.9224831716  142.9660866689  153.7808894286
H  92.3044450440  143.6541109601  153.9361359460
O  92.3688288181  142.0129280635  152.7487604754
H  92.9422803118  141.6126234802  152.0866266791
H  93.2644039074  143.2773264657  148.4114756616
C  93.2625753097  142.7375065486  149.3534479108
H  93.4002973828  143.4683507555  150.1509047829
H  92.3189839844  142.2162050118  149.5160600654
C  94.3517212424  141.7157780163  149.3880887737
O  94.1987654398  140.8864129164  150.4262005746
O  95.2395734938  141.6090972551  148.5833719841
H  93.2114040523  146.0909430046  148.9204759669
C  94.0601641801  145.9128968827  148.2593666268
S  95.5316704742  145.5631678224  149.1477517133
C  94.0231296095  145.9140128565  146.9208333439
S  95.4617087528  145.4793909590  145.9803413291
H  93.1449739386  146.1876330145  146.3280419848
Cu  99.3551812096  141.6802036265  146.0480492823
S  98.8143611370  143.7909126624  146.5314738586
Mo  97.2579284864  145.4892954522  147.5408633508
O  98.2374012335  144.2792773408  148.9468398185
O  97.9870998805  146.9794750489  147.4436178531
C  98.9919299012  143.4422881056  148.3242179609
O  99.6547484618  142.5451168521  148.7682824607
H  94.6820218807  140.0354054709  150.2537853650
O  101.2426905495  145.6362348030  144.7545102646
H  101.9463604926  144.9872062870  144.6615946974
H  100.6943033116  145.3088585835  145.4754717492