81
charge=1, multiplicity=5, basis=def2-QZVPP, mem_total=700000, AUX_BASIS_CORR=rimp2-def2-QZVPP, SCF_ALGORITHM=GDM, xc_grid=000099000590, num_basis=3687, num_pairs=2549593, num_threads=128
C  42.0841580022  36.5769209983  28.7110919994
H  41.6828380707  35.6459635808  28.3211784963
H  43.1210321718  36.6502159698  28.3746091032
N  41.9635846173  36.5654515378  30.1469375846
H  41.7290305907  35.7012361945  30.6006680291
C  42.2213921359  37.6372273216  30.9128918480
N  42.7461249297  38.7184605405  30.3786953093
H  42.8053670532  39.6225706532  30.9241755949
H  43.0589414188  38.7204796523  29.4247011431
N  41.9504406728  37.5939877777  32.2137096675
H  41.9469884336  38.4845750984  32.7619733988
H  41.3426142533  36.8689842956  32.5514117833
N  36.6310702193  42.4100533216  34.5966113152
H  35.8296341970  42.2813382564  34.0021742653
C  36.8551390297  41.7847710235  35.7913299922
C  37.6652014117  43.2278938613  34.3483869224
H  37.7510463134  43.8419933596  33.4651141779
N  38.5427823824  43.1609945012  35.3205845045
C  38.0505957696  42.2641311195  36.2294831614
H  38.5780235561  42.0185743673  37.1361358507
N  41.7436283055  44.2215596194  39.4101217842
H  41.9474786938  44.7083974219  40.2666494299
C  41.8845389893  42.8781010034  39.1960249831
C  41.2864611978  44.7800498215  38.2815203096
H  41.0821917023  45.8322766691  38.1739042709
N  41.1272711504  43.8676803500  37.3519931559
C  41.5060300872  42.6756928227  37.9076348972
H  41.4992350150  41.7512187600  37.3563188021
C  45.4600660106  44.2876080087  37.7078280009
H  45.2031925948  43.5351087170  38.4525091927
H  44.9672873778  45.2229978684  37.9647693644
S  44.8461711530  43.8674640082  36.0570421753
N  38.5810505729  48.0694163778  36.0073497965
H  38.4550396262  49.0297374856  35.7354258475
C  37.8809000206  47.4067409763  36.9759289876
C  39.4584400205  47.2125211480  35.4639921090
H  40.1354422965  47.4584711573  34.6621085083
N  39.3585267677  46.0388224877  36.0412857687
C  38.3758800899  46.1431257179  36.9848503051
H  38.0771401661  45.3095795135  37.5984360700
N  44.0034765473  44.9472004120  30.5062184465
H  43.2406458926  45.5576606456  30.7901344231
C  45.1133759521  44.6333269922  31.2360930455
C  43.9764125722  44.1070718577  29.4488448289
H  43.1884090799  44.1375347446  28.7122584452
N  44.9960022764  43.2925768625  29.4398178724
C  45.7156368231  43.6113244067  30.5535793408
H  46.6412553674  43.1115184537  30.7950973438
C  47.1856230053  40.4926620025  35.7657369982
C  46.5976357148  41.6378187534  36.3062318816
H  46.8647374166  41.9454616271  37.3092260282
C  45.6894997122  42.3843556272  35.5673625808
C  45.3799913710  41.9515185154  34.2698831221
O  44.4831056684  42.6918789081  33.5922235018
H  44.4430502919  42.4364122530  32.6594006022
C  46.8688094254  40.0833662322  34.4853564058
H  47.3246109304  39.1976959663  34.0645944092
C  45.9577518776  40.8120364841  33.7371490171
H  45.6868904401  40.4962210186  32.7361908515
N  41.4986646616  42.5345230436  34.5409237271
H  41.3218016375  41.6427101854  34.9991103782
C  41.2390857040  42.2927952117  33.1100752607
H  40.1576101545  42.1346312001  33.0044500544
C  41.6660398554  43.4479803142  32.2296917678
H  42.6881427303  43.7630198592  32.4314569742
H  41.6105239108  43.1500611871  31.1829769516
S  40.6714123188  44.9579222416  32.3829910966
C  41.9011326488  40.9617568907  32.6948315136
O  42.6455317988  40.9712834712  31.6937435180
O  41.6155447449  39.9848303705  33.4153444624
H  42.5007872851  42.6923957526  34.6475538076
Fe  40.4158483160  44.2656362312  35.3606216176
O  41.0368433468  45.3360663817  33.8692871163
O  41.3401834995  45.9135520728  31.4529875315
H  41.5069343497  37.3908844402  28.2713777567
H  36.1678390805  41.0749566494  36.2161084817
H  42.2410379408  42.2009977458  39.9518858421
H  46.5360657810  44.4537904759  37.7090311504
H  37.1072252960  47.8770953323  37.5571001541
H  45.3749179251  45.1472554462  32.1449262717
H  47.8967513032  39.9347503853  36.3593740724