22
charge=0, multiplicity=1, basis=def2-QZVPP, AUX_BASIS_CORR=rimp2-def2-QZVPPD, SCF_ALGORITHM=GDM, xc_grid=000099000590, mem_total=15000, num_basis=966, num_pairs=389995, num_threads=4
C  1.1978304851  -1.5362151114  0.2551893431
C  1.3946464202  -0.9973672726  -1.0479301343
C  1.9266687513  0.3155987217  -0.9035166257
C  2.0472107487  0.5928585613  0.4861704641
C  1.5926201981  -0.5509104457  1.2045742866
Ti  -0.2885596585  0.3024647217  0.0624267525
N  -0.4462165398  2.1873986934  -0.1598090064
N  -1.6718133487  -0.2256935876  1.1770903971
C  -2.4711427836  -0.7644131412  0.0156083433
C  -1.6674948135  -0.5240161213  -1.2870659975
H  2.1620048369  1.0026595033  -1.7186487634
H  1.1752676425  -1.4990291389  -1.9906201091
H  2.3934797884  1.5285300437  0.9278663254
H  1.5379516321  -0.6466847244  2.2907521985
H  0.7738146385  -2.5148204385  0.4882296173
H  -1.4551372603  -1.4538623838  -1.8338061242
H  -2.6451798644  -1.8488106888  0.1615927395
H  -2.0476756088  -0.4944088809  2.0868064352
H  0.2481579754  2.8558905967  -0.5018829696
H  -1.2748249321  2.7015525366  0.1544118545
H  -2.1246754804  0.2281509764  -1.9473009226
H  -3.4556040207  -0.2549569239  -0.0171917358