19
charge=1, multiplicity=1, basis=def2-QZVPP, AUX_BASIS_CORR=rimp2-def2-QZVPPD, SCF_ALGORITHM=GDM, xc_grid=000099000590, mem_total=7500, num_basis=843, num_pairs=274587, num_threads=2
C  2.7552595345  -1.1360481032  -0.2109246544
C  1.5123956870  -1.2780986833  0.3083106687
C  1.4438796813  1.0167815828  0.5936871314
C  2.5748946571  1.2484311573  -0.2960454921
C  3.2607629546  0.1536571365  -0.7048132417
Pt  -0.1532683651  0.0635404741  0.1178254794
P  -1.9323332140  1.5120805967  -0.3104712810
P  -1.5850730784  -1.8538168558  -0.2478409341
H  4.1699173051  0.2211498814  -1.3085690058
H  3.4290161293  -2.0034407352  -0.2244456642
H  1.5825153403  1.3087106649  1.6560947854
H  2.8527983415  2.2806244439  -0.5481009549
H  -1.6471173754  2.8954097474  -0.2438288644
H  -1.8445643449  -2.2223739313  -1.5912354823
H  1.2473376685  -2.1914935351  0.8573139479
H  -1.0246259847  -3.0586752261  0.2391418429
H  -2.8940869871  -1.9497726892  0.2898722849
H  -3.0786829322  1.4415641122  0.5187431635
H  -2.5316224693  1.4327654323  -1.5911178006