60
charge=0, multiplicity=1, basis=def2-QZVPP, mem_total=240000, AUX_BASIS_CORR=rimp2-def2-QZVPPD, SCF_ALGORITHM=GDM, xc_grid=000099000590, num_basis=2418, num_pairs=1716953, num_threads=64
Ta  -0.5614041259  -0.0034616225  -0.0788509050
N  -0.8881281028  0.4702815146  1.8958259647
N  -2.0073271290  1.1790478469  -0.8676171275
N  -1.4707837529  -1.7795033239  -0.3484466975
N  1.3503272492  1.1726882114  0.1674066967
N  1.3674949959  -1.0217228886  0.4514124353
C  0.0700240599  0.5101550812  2.9899567918
H  0.1978038402  1.5405850809  3.3857749841
H  1.0477591040  0.1336470973  2.6589700271
H  -0.2786153845  -0.1242071388  3.8328628145
C  -2.1902665930  0.9557607511  2.3500069066
H  -2.9136288775  0.9645178055  1.5191681414
H  -2.1168121710  1.9884728163  2.7575430711
H  -2.5944115392  0.3133195719  3.1621654603
H  -3.1191792819  -0.3200090967  -1.8367212976
C  -3.0347279366  0.7776627339  -1.8178469038
H  -4.0212581025  1.2090808097  -1.5447536469
H  -2.7919606576  1.1264418241  -2.8448886233
H  -1.6087783129  3.0865358987  -1.7392547856
C  -1.8925057948  2.6297793789  -0.7673058279
H  -2.8527205332  3.0866248679  -0.4468111018
H  -1.1244293309  2.9034104708  -0.0248276817
C  -1.0652211528  -2.8610113604  -1.2358703664
H  -0.7745950994  -3.7653750519  -0.6612230499
H  -0.2121656151  -2.5545950546  -1.8572653323
H  -1.9007862646  -3.1486148876  -1.9079539759
H  -2.2825574536  -3.0374343647  1.1734240325
C  -2.5725574860  -2.1854574434  0.5229290239
H  -3.4482724708  -2.5041969198  -0.0804608893
H  -2.8864548022  -1.3526460452  1.1707959461
C  1.8564474437  2.5339059385  0.0311097351
H  1.4097106278  2.9435788993  -0.8985890144
C  1.3709666718  3.3977457312  1.2109176026
H  0.2823500325  3.2949200488  1.3544651622
H  1.6050845796  4.4641278458  1.0428867810
H  1.8619445697  3.0727910946  2.1448830516
C  3.3830014060  2.6253646141  -0.1059683172
H  3.6768391646  3.6721298794  -0.2945882064
H  3.7499514567  2.0039982513  -0.9388344900
H  3.8864438607  2.3000076778  0.8226062599
H  3.7902164344  -3.4465089597  0.8216500474
C  3.4472830347  -2.4011838878  0.7354522892
H  3.7864110213  -1.8590069150  1.6374289140
H  3.9337234438  -1.9530142037  -0.1480307410
C  1.9189676164  -2.3640796812  0.6056795549
H  1.6576918694  -2.9351778552  -0.3087490191
C  1.2306204574  -3.0559737382  1.7937401098
H  0.1351574979  -2.9934133806  1.6840910638
H  1.5044956560  -2.5579962499  2.7410167734
H  1.5212746170  -4.1198684074  1.8581990568
H  3.1951244907  0.1205658312  0.4390273472
C  2.0975197818  0.0944413530  0.3650211871
C  0.3766056887  0.0308775377  -2.2339051522
H  0.3949142167  1.0913391114  -2.5489821621
H  -0.4721656706  -0.4643188978  -2.7539247015
C  1.6457875007  -0.6486638437  -2.5068814485
H  1.6193833982  -1.7511322984  -2.4849978965
C  2.8576907159  -0.0757458451  -2.7058118782
H  2.9671316809  1.0139662124  -2.7753886033
H  3.7644485306  -0.6762407212  -2.8428729467