50
charge=0, multiplicity=1, basis=def2-QZVPP, mem_total=120000, AUX_BASIS_CORR=rimp2-def2-QZVPPD, SCF_ALGORITHM=GDM, xc_grid=000099000590, num_basis=2232, num_pairs=1454713, num_threads=32
C  2.2625956160  3.3328575291  0.8557596805
C  1.3931989696  2.2275929873  0.8617169208
C  1.7595197426  1.0517035724  0.1470467815
C  3.0212107368  1.0010380785  -0.5058363473
C  3.8811839090  2.1040972722  -0.4574934660
C  3.5032727401  3.2807532640  0.2080220037
C  3.3346740795  -0.2640583991  -1.2755238019
C  2.8295309876  -1.4742510341  -0.5224283638
C  1.5824146915  -1.3198879895  0.1279785991
C  1.0076995484  -2.4197071203  0.8221916044
C  1.6616176311  -3.6623808266  0.7931688766
C  2.8906464121  -3.8180179910  0.1358617350
C  3.4769181149  -2.7162039299  -0.5055804971
H  1.9671006429  4.2377712119  1.4003792825
H  4.8515265866  2.0464666649  -0.9649899127
H  4.1736056440  4.1459695002  0.2288833648
H  4.4116938100  -0.3432920077  -1.4993413600
H  1.2144398533  -4.5116589179  1.3236786746
H  3.3931457424  -4.7906816304  0.1334225135
H  4.4395053900  -2.8263225314  -1.0190669121
N  0.9209043622  -0.0798898659  0.1143917773
Ru  -1.0078440778  -0.0237700598  -0.6865729037
C  0.0905123362  2.2768911804  1.6166940835
H  0.0113551400  1.4217664978  2.3157423189
H  -0.0060239723  3.2177382859  2.1865856973
C  -0.2467369429  -2.2121538195  1.6314193008
H  -0.0898858241  -1.3967271645  2.3641139277
H  -0.5254004624  -3.1289807314  2.1810519250
P  -1.3192828145  2.0641152116  0.4223981338
P  -1.7046489530  -1.6428708114  0.6272943571
C  -2.3491410794  -3.1646637860  -0.1800822402
H  -3.1800876586  -2.8958358058  -0.8527336318
H  -2.6972930405  -3.8945438087  0.5716315561
H  -1.5345008955  -3.5981293383  -0.7817388370
C  -2.9839110863  -1.2876952515  1.9107558390
H  -3.2147580637  -2.1943093368  2.4978251545
H  -3.9012942479  -0.9222535837  1.4209608183
H  -2.6056897385  -0.5047414421  2.5876263945
C  -1.1794244760  3.5748031604  -0.6366492265
H  -1.2355166144  4.4994403237  -0.0351714764
H  -1.9900955397  3.5708121995  -1.3843053509
H  -0.2096592370  3.5439969034  -1.1609631893
C  -2.8348398813  2.4295085007  1.4152346824
H  -3.7205486409  2.3398388712  0.7641533195
H  -2.7950166306  3.4458732667  1.8450307890
H  -2.9278494789  1.6941955740  2.2300434170
C  -2.6229654884  0.0357375676  -1.6054922529
O  -3.6447296434  0.0756622190  -2.1818863748
H  -0.5690536136  -1.3771423989  -1.4901847782
H  2.8032740624  -0.2197675650  -2.2533796588