33
charge=0, multiplicity=1, basis=def2-QZVPP, AUX_BASIS_CORR=rimp2-def2-QZVPPD, SCF_ALGORITHM=GDM, xc_grid=000099000590, mem_total=30000, num_basis=1344, num_pairs=576065, num_threads=8
Os  0.0069468353  -0.0412343006  0.0407824928
H  -1.3403912870  -4.1122207292  1.5797185430
H  -0.9717095863  -3.5312076720  1.2559183983
P  2.3321359787  -0.3043234547  -0.0482497232
P  -2.3233438111  -0.2661819017  -0.0628193991
C  -3.2887749176  1.1946311557  -0.6577907740
H  -4.3734731339  0.9887150538  -0.6902308551
H  -3.0918789216  2.0490679376  0.0108543214
H  -2.9327789034  1.4623291966  -1.6665457483
C  -2.9157958662  -1.6095632956  -1.1838566312
H  -2.4999868100  -2.5672359129  -0.8322794073
H  -4.0189675808  -1.6607375350  -1.2084626100
H  -2.5305749371  -1.4176803753  -2.1987571923
C  -3.1883257431  -0.6789025674  1.5243646896
H  -3.0067444194  0.1272944620  2.2551790839
H  -4.2765906690  -0.7951076168  1.3736481708
H  -2.7710937138  -1.6177400845  1.9243038108
C  2.9061433883  -1.5310330877  -1.3049646898
H  4.0066795563  -1.6259127045  -1.3063638937
H  2.4412708042  -2.5040764829  -1.0791002221
H  2.5608668577  -1.2060730392  -2.3001907033
C  3.3579091538  1.1802780738  -0.4533022860
H  3.1764640100  1.9583580904  0.3067159592
H  4.4357303492  0.9419092830  -0.4918170350
H  3.0313092156  1.5756677794  -1.4295186049
C  3.1465593644  -0.9282534671  1.4958506484
H  2.6875133417  -1.8920949856  1.7720281885
H  4.2341091965  -1.0631242787  1.3559698523
H  2.9723941604  -0.2092618526  2.3143362788
C  0.0116636311  1.8665944751  0.0758054942
O  0.0186053459  3.0406900964  0.1348940164
H  0.0172295068  -1.7841113699  0.1080345679
H  0.0121488555  0.0405376121  -1.5488982122