28
charge=0, multiplicity=1, basis=def2-QZVPP, AUX_BASIS_CORR=rimp2-def2-QZVPPD, SCF_ALGORITHM=GDM, xc_grid=000099000590, mem_total=30000, num_basis=1330, num_pairs=629121, num_threads=8
C  0.0000055255  2.7703199434  -1.3046098879
N  0.0000006324  1.6137655687  -0.6220926432
N  0.0000001535  1.9187908209  0.6985366933
C  0.0000037402  3.2660407336  0.8651392947
C  0.0000079620  3.8538748252  -0.4010290449
B  -0.0000048210  0.7259763972  1.6847505087
N  -1.3475375355  -0.0752167211  1.4534359366
N  -1.7775350485  -0.4986376242  0.2120038624
C  -2.9734269396  -1.0858314907  0.3766708119
C  -3.3526143614  -1.0329036758  1.7333742902
C  -2.2984507288  -0.3840072796  2.3742114137
Pt  0.0000022943  -0.5353886594  -0.8964794501
N  1.3475294645  -0.0752171499  1.4534420058
N  1.7775349515  -0.4986277921  0.2120095413
C  2.9734220604  -1.0858321982  0.3766831175
C  3.3525966386  -1.0329188134  1.7333902628
C  2.2984332712  -0.3840205166  2.3742233030
H  3.4932744322  -1.5060225586  -0.4840327511
H  2.1566368837  -0.1112663250  3.4194243610
H  4.2723706040  -1.4050126457  2.1827434657
H  -0.0000082697  1.1103277029  2.8333920223
H  -2.1566621163  -0.1112451192  3.4194112488
H  0.0000043227  3.7029385956  1.8631239351
H  -4.2723943960  -1.4049896159  2.1827225093
H  0.0000117460  4.9172819181  -0.6366616028
H  -3.4932745678  -1.5060262412  -0.4840457014
H  0.0000068548  2.7636661505  -2.3947857566
H  0.0000177497  -2.1061995250  -1.0024149261