54
charge=0, multiplicity=1, basis=def2-QZVPP, mem_total=240000, AUX_BASIS_CORR=rimp2-def2-QZVPPD, SCF_ALGORITHM=GDM, xc_grid=000099000590, num_basis=2427, num_pairs=1562683, num_threads=64
C  -2.5537578254  2.4037780870  -2.3721526812
H  -2.2680681707  3.0142777413  -3.2415698921
H  -3.0831874824  3.0446093853  -1.6442122128
H  -3.2759768557  1.6329997517  -2.6924810072
C  -1.3367672584  1.7759243188  -1.7283056889
C  -0.0715925161  2.1080449040  -2.2294767981
H  -0.0636644247  2.7561072448  -3.1088954329
C  1.2013155356  1.8148386267  -1.6783602120
C  2.4092441100  2.4442669423  -2.3442101575
H  2.9893200238  3.0389502725  -1.6169481761
H  2.0988329537  3.0955209404  -3.1743102097
H  3.0943007757  1.6726929424  -2.7353389627
C  2.6990148703  0.9469429032  -0.0226719108
C  3.6197430786  0.0339037458  -0.5667830359
C  4.8935220835  -0.1016095544  0.0019118684
H  5.6024643268  -0.8186035433  -0.4249095024
C  5.2566706374  0.6704166874  1.1156865389
H  6.2501859491  0.5594008098  1.5627143558
C  4.3366297056  1.5815952203  1.6572673286
H  4.6099971147  2.1849419151  2.5288135875
C  3.0621887222  1.7208039722  1.0937606924
C  -2.8266798995  0.7875174371  -0.1063406923
C  -3.7146840511  -0.1952565417  -0.5810523051
C  -4.9597124764  -0.3740657853  0.0344081350
H  -5.6419645620  -1.1453875959  -0.3383573823
C  -5.3261438992  0.4184318545  1.1323890291
H  -6.2954479366  0.2689131810  1.6190922165
C  -4.4403051646  1.3946468656  1.6123545072
H  -4.7162131395  2.0111503565  2.4746684625
C  -3.1956425785  1.5808069846  0.9978371656
C  0.5228351485  -0.2818997551  3.5881896505
C  1.2177056081  -3.6521542460  -1.8524561349
H  1.8258096974  -4.2401787333  -2.5462300335
C  -0.1951729655  -3.5795559935  -2.0362980362
H  -0.6577855711  -4.0944551542  -2.8856769208
C  -0.9899479213  -2.8655638952  -1.1589028229
H  -2.0768672516  -2.8205184686  -1.2731583968
C  -0.3816182679  -2.1346940201  -0.1002149527
C  1.0469467644  -2.2212938785  0.1302357540
H  1.4959765977  -1.8979831978  1.0815193005
C  1.8104586221  -3.0205781332  -0.7711422650
H  2.8867237468  -3.1342503733  -0.5965653159
N  1.3742400133  1.0631506923  -0.5772733335
N  -1.5186684588  0.9319555543  -0.6796878107
N  0.4011570421  0.0230622263  2.1985785977
Nb  -0.0582966979  -0.1496412275  0.4685540669
H  0.2842912108  -1.3458287771  3.7925049540
H  1.5586062769  -0.0912870078  3.9393838031
H  -0.1562512737  0.3387675402  4.2062212094
H  2.3276368741  2.4082276001  1.5206196682
H  3.3190872879  -0.5763539661  -1.4235169020
H  -3.4126389455  -0.8147525373  -1.4303148605
H  -2.4900659822  2.3308645896  1.3698561853
F  -1.4436929921  -1.9399764985  1.1880593938