60
charge=1, multiplicity=1, basis=def2-QZVPP, mem_total=240000, AUX_BASIS_CORR=rimp2-def2-QZVPPD, SCF_ALGORITHM=GDM, xc_grid=000099000590, num_basis=2484, num_pairs=1682038, num_threads=64
N  1.2126371670  0.9310463458  1.3454199754
C  1.9176192037  1.4666777128  -1.3996068364
H  2.8163063521  1.0527230221  -0.9115702044
H  2.1238405528  1.7644682572  -2.4364450212
C  1.1370723047  2.4364812644  -0.6254666610
C  0.7086285181  2.1600293901  0.7214875811
C  -0.1938135215  3.0126709326  1.3926032836
H  -0.4826956572  2.8011587907  2.4249968240
C  -0.7208295451  4.1316270197  0.7495130093
H  -1.4197490622  4.7870255894  1.2770827812
C  -0.3361941183  4.4143486358  -0.5766617931
H  -0.7424618641  5.2934021423  -1.0867130480
C  0.5652586667  3.5887243444  -1.2398497923
H  0.8631692408  3.8196289257  -2.2678640037
C  0.3674605988  0.4065922466  2.4429056717
H  0.3801076321  1.0622183970  3.3329948223
H  0.7494651163  -0.5829540313  2.7375737294
H  -0.6789780443  0.3079575444  2.1022871679
C  2.6246101649  1.0608653277  1.7944085730
H  3.2362610913  1.4687891586  0.9781042781
H  3.0109551771  0.0718608973  2.0835479205
H  2.6815932814  1.7460405443  2.6597569427
Sc  0.4008815619  0.0505282615  -0.6267996253
C  1.1090441252  -2.9015177097  0.4372031515
C  2.2732349100  -2.8357952301  1.4262377297
N  1.2897906333  -1.9787161334  -0.7143739649
C  3.6215304517  -3.0491520024  0.7242625749
C  3.7718807818  -2.0655141442  -0.4445696610
C  2.5937645436  -2.1828284317  -1.4097963456
C  0.1072513568  -1.9079839389  -1.5793420541
H  0.1504495748  -2.6443442385  0.9258064383
H  1.0004013223  -3.9320231252  0.0408406335
H  2.2732203474  -1.8490296973  1.9242884641
H  2.1106720938  -3.5913847250  2.2139781447
H  4.4505268828  -2.9310691133  1.4427135039
H  3.6768391219  -4.0857995458  0.3411797968
H  3.8270610796  -1.0289593399  -0.0613170094
H  4.7068454360  -2.2515827530  -1.0000460441
H  2.6607789837  -1.4330925650  -2.2161721880
H  2.5782941228  -3.1848626099  -1.8848569472
H  0.3999002900  -1.8188448075  -2.6411905875
H  -0.5970944085  -2.7407266330  -1.4338144847
C  -2.2158945780  -0.2787017181  -1.2691882718
H  -2.2350402606  -0.7771981436  -2.2458753635
C  -1.7971069289  1.0209955860  -1.1960205907
H  -1.9218197034  1.6148799189  -0.2797812346
H  -1.4858022634  1.5698744758  -2.0939581973
C  -2.8728697858  -1.0169786875  -0.1332157525
H  -2.4921545856  -2.0530905643  -0.0804456548
H  -2.6380162112  -0.5257443188  0.8320375564
C  -4.4102901001  -1.0647627631  -0.3083254336
H  -4.6469039014  -1.5344854414  -1.2820236828
H  -4.7984593812  -0.0303376270  -0.3579502525
C  -5.1094595050  -1.8349270919  0.8214934714
H  -4.7032834760  -2.8642450113  0.8632787362
H  -4.8566239302  -1.3636494569  1.7914819850
C  -6.6320077508  -1.8850617118  0.6524668257
H  -7.1042367267  -2.4427359665  1.4787835174
H  -7.0654658740  -0.8691123379  0.6392917549
H  -6.9115271959  -2.3821332280  -0.2935184163