39
charge=0, multiplicity=1, basis=def2-QZVPP, AUX_BASIS_CORR=rimp2-def2-QZVPPD, SCF_ALGORITHM=GDM, xc_grid=000099000590, mem_total=60000, num_basis=1578, num_pairs=809106, num_threads=16
Os  0.0257978820  -0.1149922197  0.1863870232
H  -0.0546390498  1.0145886304  -1.1885415832
H  -0.1899930098  1.6211253776  0.9202633876
P  2.3821108201  0.0642409723  0.1537222640
P  -2.3391423499  -0.1424832252  0.1679089783
C  -3.1546880569  -1.6739688108  0.7932173074
H  -4.2553358753  -1.6022573663  0.7378955670
H  -2.8096566635  -2.5299170135  0.1891916044
H  -2.8401595503  -1.8401144955  1.8363777097
C  -3.1136532790  1.2081838553  1.1544113312
H  -2.6567563528  2.1567792058  0.8202608316
H  -4.2091263648  1.2346990776  1.0205625302
H  -2.8761725793  1.0556330477  2.2207202607
C  -3.0853506017  0.0732023276  -1.5038176849
H  -2.7673442713  -0.7674277119  -2.1430664024
H  -4.1881577949  0.1077143441  -1.4592775304
H  -2.6901872314  1.0037210821  -1.9431786290
C  3.0690708399  1.6159433808  0.8797238332
H  4.1695340179  1.6446783965  0.7960475781
H  2.6345274728  2.4702152575  0.3344553789
H  2.7813517404  1.6814451190  1.9424656032
C  3.3255056386  -1.2626233567  1.0230395652
H  3.0473849470  -2.2352229110  0.5838544835
H  4.4166202768  -1.1150483927  0.9359588473
H  3.0302336056  -1.2699193920  2.0849974353
C  3.1079746645  0.0476445853  -1.5404418428
H  2.6562823872  0.8749505215  -2.1118736576
H  4.2063401464  0.1579655251  -1.5141381175
H  2.8436018993  -0.9044985509  -2.0300341193
C  0.1000610396  -1.6862972052  -0.8166556832
O  0.1439059234  -2.6839681002  -1.4291679288
H  -1.6011896950  3.6931060847  -0.7888716936
H  -0.1668873519  3.9726813965  -0.0248638940
H  1.1762772343  2.6090139495  -1.5867607822
H  -0.6170496505  2.2645039709  -2.5579575694
B  -0.0287901765  2.4144069016  -1.4960350514
N  -0.7404576067  3.2496220905  -0.4632395811
H  0.0240468327  1.1348005185  1.5613847668
H  0.0570782026  -1.0766673253  1.5640893469