33
charge=0, multiplicity=1, basis=def2-QZVPP, AUX_BASIS_CORR=rimp2-def2-QZVPPD, SCF_ALGORITHM=GDM, xc_grid=000099000590, mem_total=30000, num_basis=1344, num_pairs=575046, num_threads=8
Os  0.0005936951  -0.0559510785  0.0198416902
H  0.1697687834  -0.1804170766  3.9797977314
H  -0.0203932961  0.5497501269  3.9091147782
P  2.3271090310  -0.3079597980  -0.0454271179
P  -2.3247115821  -0.3154102072  -0.0440461218
C  -3.3338860720  1.1120336873  -0.6480740852
H  -4.4150665035  0.8858739626  -0.6474436026
H  -3.1360975763  1.9863416086  -0.0058960911
H  -3.0091041049  1.3614789051  -1.6719555527
C  -2.9204783342  -1.6955653312  -1.1179339434
H  -2.4742265315  -2.6355347411  -0.7557343500
H  -4.0226774125  -1.7691975883  -1.1117878446
H  -2.5661586019  -1.5204512219  -2.1470747719
C  -3.1403542606  -0.7087877794  1.5743843642
H  -2.9515974193  0.1138984746  2.2846942046
H  -4.2302175715  -0.8472887909  1.4579669385
H  -2.6932996331  -1.6313079790  1.9809598189
C  2.9249592122  -1.5422556938  -1.2836117997
H  4.0251190818  -1.6391664396  -1.2620540877
H  2.4536464121  -2.5131433300  -1.0617671843
H  2.6007874038  -1.2219452873  -2.2874096637
C  3.3575569381  1.1756793967  -0.4435453075
H  3.1641429924  1.9574982007  0.3096761455
H  4.4361932491  0.9386174208  -0.4647709490
H  3.0450631356  1.5658522093  -1.4264749926
C  3.1161670931  -0.9187318917  1.5170808945
H  2.6609391724  -1.8866836248  1.7848692053
H  4.2079409591  -1.0417677522  1.4013046035
H  2.9152155741  -0.2002968992  2.3299309774
C  -0.0115757005  1.8517017185  -0.0472958212
O  -0.0173013183  3.0273976582  -0.0549525292
H  0.0198287553  -1.7941258986  0.1648041425
H  -0.0013612027  -0.0662468741  -1.5719596578