62
charge=0, multiplicity=1, basis=def2-QZVPP, mem_total=240000, AUX_BASIS_CORR=rimp2-def2-QZVPPD, SCF_ALGORITHM=GDM, xc_grid=000099000590, num_basis=2577, num_pairs=1830995, num_threads=64
Mn  0.0000004215  -0.0506385917  -0.1316240787
C  0.0000005846  0.3934382007  1.5710099532
O  -0.0000093200  0.7348954141  2.6948922534
C  -0.0000090813  -1.8005753958  0.1964530679
O  -0.0000187453  -2.9456965741  0.4772854764
P  2.2424803375  0.1917919125  -0.2703436007
C  2.4307998023  1.9650327367  -0.7971585414
C  1.1952297033  2.6954527148  -0.2641015438
N  -0.0000001733  1.9651403261  -0.6464488225
C  -1.1952302967  2.6954521083  -0.2641011567
C  -2.4308001977  1.9650415026  -0.7971576497
P  -2.2424796625  0.1918007739  -0.2703427701
C  -3.1933893772  0.0988611478  1.3457059791
C  -4.6996194651  0.3869727037  1.2540160554
H  -4.9230997903  1.2909021730  0.6623813082
H  -5.2421393224  -0.4623761309  0.8045635473
H  -5.1108993397  0.5401504346  2.2685088420
C  -2.9158889219  -1.1979501081  2.1253134406
H  -1.8382788563  -1.4053473534  2.2054946064
H  -3.3948287786  -2.0682745881  1.6465705668
H  -3.3252287788  -1.1090598290  3.1478561886
H  -2.7142894978  0.9291761481  1.9018557902
C  -3.1401796298  -0.7883487113  -1.6044674997
C  -3.2760591928  -2.2751672406  -1.2355439577
H  -2.3318790242  -2.6952450143  -0.8524744156
H  -4.0539890310  -2.4217905091  -0.4660711651
H  -3.5779291889  -2.8580658955  -2.1246815175
C  -4.4702998600  -0.2005264963  -2.1050339038
H  -5.2715097123  -0.3049116840  -1.3562517171
H  -4.3827401734  0.8668491999  -2.3675261639
H  -4.7928998696  -0.7424824355  -3.0133955000
H  -2.4074697834  -0.7113513214  -2.4322296075
H  -3.3795202574  2.4168684025  -0.4579767874
H  -2.4119203799  1.9780742883  -1.9019318149
H  -1.1692306267  3.7253133216  -0.6884034585
H  -1.2978601518  2.8323018411  0.8450464368
H  1.1692293733  3.7253139149  -0.6884038372
H  1.2978598482  2.8323026041  0.8450360169
H  3.3795197426  2.4168601180  -0.4579779863
H  2.4119196201  1.9780756166  -1.9019425956
C  3.1933906228  0.0988627684  1.3457049448
C  4.6996205349  0.3869749843  1.2540245327
H  4.9231102097  1.2908945676  0.6623896088
H  5.2421406776  -0.4623835744  0.8045717446
H  5.1109006603  0.5401529239  2.2685171860
C  2.9158910781  -1.1979487327  2.1253224956
H  1.8382711437  -1.4053364210  2.2054941153
H  3.3948212214  -2.0682728653  1.6465694672
H  3.3252312212  -1.1090581416  3.1478551116
H  2.7142905022  0.9291874207  1.9018650148
C  3.1401903702  -0.7883471177  -1.6044685168
C  3.2760708072  -2.2751655781  -1.2355450188
H  2.3318909758  -2.6952437266  -0.8524851703
H  4.0539909690  -2.4217885562  -0.4660624787
H  3.5779408111  -2.8580640798  -2.1246826764
C  4.4703101400  -0.2005243320  -2.1050253523
H  5.2715102877  -0.3049191126  -1.3562435294
H  4.3827498266  0.8668513197  -2.3675175840
H  4.7929101304  -0.7424801076  -3.0133870529
H  2.4074902166  -0.7113500997  -2.4322303873
H  -0.0000099277  0.2068084745  -1.8846644169
H  0.0000202797  -0.5962898163  -1.8621689835