54
charge=0, multiplicity=1, basis=def2-QZVPP, mem_total=240000, AUX_BASIS_CORR=rimp2-def2-QZVPPD, SCF_ALGORITHM=GDM, xc_grid=000099000590, num_basis=2427, num_pairs=1636587, num_threads=64
C  -1.3750645791  3.8571833979  -1.7055639097
H  -0.9383946918  4.4680858392  -2.5111652176
H  -1.5325033284  4.5174144927  -0.8325683574
H  -2.3660767285  3.4906854768  -2.0236292661
C  -0.4641323192  2.7028195017  -1.3595391894
C  0.8977402770  2.7384564844  -1.6724398288
H  1.2494079733  3.5959163743  -2.2522042573
C  1.9029854474  1.8389737997  -1.2211230415
C  3.3334409591  2.1918395047  -1.5893312180
H  3.9458805778  2.3400477715  -0.6829176026
H  3.3636206564  3.1100583984  -2.1944519666
H  3.8114880434  1.3759601972  -2.1587059771
C  2.8250458184  0.1044656407  0.1166977279
C  3.5437177000  -0.8717269567  -0.6001329334
C  4.6421382844  -1.5141174229  -0.0111410504
H  5.1878534854  -2.2756660576  -0.5786365552
C  5.0411955274  -1.1877124520  1.2924939359
H  5.8973394838  -1.6934245792  1.7505818990
C  4.3353081124  -0.2040205335  2.0039761439
H  4.6431600988  0.0659797467  3.0200399003
C  3.2368566629  0.4386663502  1.4219174037
C  -2.1510164879  1.3988236687  -0.0503838549
C  -2.7428581164  0.1050297321  -0.2157331036
C  -3.7641070797  -0.3145467217  0.6718320492
H  -4.1912756058  -1.3132742070  0.5456091657
C  -4.2337825511  0.5421833705  1.6615325684
H  -5.0270272944  0.2182426781  2.3421953555
C  -3.6952603348  1.8501623503  1.7763285907
H  -4.0823910543  2.5260156409  2.5470135705
C  -2.6662430830  2.2795230704  0.9519898400
C  0.2740031771  0.1964776857  3.3992933694
C  0.4101623772  -1.8674986598  -1.9901690056
H  1.2924981894  -1.5339648137  -2.5466812054
C  -0.7675218478  -2.0994186030  -2.6755993442
H  -0.8125075847  -1.9017444618  -3.7520201767
C  -1.9191562464  -2.6741952549  -2.0282861428
H  -2.8058493852  -2.9815451022  -2.5874410103
C  -1.8479601504  -2.8381715681  -0.6671470244
C  -0.7433985509  -2.3884954450  0.1283654015
H  -0.7170664916  -2.7412271315  1.1643611793
C  0.5194809403  -2.0633188780  -0.5571021484
H  1.4880415437  -2.3366295846  -0.1197580270
N  1.6778507002  0.7591697664  -0.4458660767
N  -0.9677061585  1.6046202808  -0.7680714752
N  0.0781895291  -0.0251455181  2.0051410664
Nb  -0.2348250472  -0.0822622771  0.2492404071
H  -0.2429619893  -0.5795598587  3.9993620815
H  1.3518731335  0.1479705447  3.6593844971
H  -0.1106388322  1.1853025470  3.7234587966
H  2.6773921379  1.2043109005  1.9659901037
H  3.2384503404  -1.1241492610  -1.6194368128
H  -2.5370431626  -0.4771299147  -1.1228721901
H  -2.2179212478  3.2685281986  1.0805603016
F  -2.8933624059  -3.3906304031  -0.0013991412