15
charge=1, multiplicity=1, basis=def2-QZVPP, AUX_BASIS_CORR=rimp2-def2-QZVPPD, SCF_ALGORITHM=GDM, xc_grid=000099000590, mem_total=3750, num_basis=589, num_pairs=147991, num_threads=1
C  2.3323085151  -0.3507411851  -0.1371419742
Pt  -0.0188856588  -0.1379342464  0.0223786734
N  -2.0760691941  -0.1692002766  -0.1287597407
N  0.1603261399  2.1168563615  -0.0102976391
H  -0.1225133881  -1.6966369601  0.0589458227
H  -2.3658824957  -0.6539165416  -0.9915259372
H  1.6014978352  -0.3116115353  0.7785669292
H  2.8629404222  -1.2908575604  0.0693401251
H  1.9451092593  -0.3873201808  -1.1720668987
H  2.9761615565  0.5299354019  -0.0008039878
H  -0.3425342486  2.5767779649  -0.7818913420
H  -0.1779889483  2.5568175240  0.8571048527
H  1.1371414812  2.4265213100  -0.1080222117
H  -2.5365374850  0.7512774318  -0.1307021982
H  -2.4763372207  -0.7026688175  0.6569159020