22
charge=0, multiplicity=1, basis=def2-QZVPP, AUX_BASIS_CORR=rimp2-def2-QZVPPD, SCF_ALGORITHM=GDM, xc_grid=000099000590, mem_total=15000, num_basis=966, num_pairs=391057, num_threads=4
C  -1.4120013217  -1.1425782118  0.8944973490
C  -1.3236799799  -1.4050541289  -0.5010553610
C  -1.6890707515  -0.2203570249  -1.2029894529
C  -1.9997387590  0.7779781145  -0.2384262543
C  -1.8242516811  0.2118885145  1.0586639505
Ti  0.3228912102  0.2935425644  0.1013102889
N  0.7401222139  1.7883602821  -1.0243149378
N  1.2097089543  0.5936393340  1.5470194516
C  2.5641267981  -0.8049067417  0.0781552733
C  1.7744173062  -1.2923504549  -0.9366273362
H  -1.7118450812  -0.0987193897  -2.2878088724
H  -1.0479070288  -2.3565875803  -0.9587792671
H  -2.2923581155  1.8074069298  -0.4500765070
H  -1.9693000451  0.7274253616  2.0088393704
H  -1.1800078030  -1.8416174097  1.6998816843
H  1.3142197929  -2.2817884049  -0.8594365623
H  2.7538817147  -1.3909781022  0.9817546597
H  1.6696948669  0.6050216649  2.4654017860
H  0.2224186516  2.1078500906  -1.8479335966
H  1.4199257390  2.5082325726  -0.7652971432
H  1.7463704100  -0.7915394622  -1.9105531187
H  3.1795675813  0.0869586259  -0.0641434827