51
charge=0, multiplicity=1, basis=def2-QZVPP, mem_total=120000, AUX_BASIS_CORR=rimp2-def2-QZVPPD, SCF_ALGORITHM=GDM, xc_grid=000099000590, num_basis=2208, num_pairs=1366785, num_threads=32
C  -3.0362459233  0.7260904037  -1.0458348626
C  -2.2102352032  0.0165872729  -0.1328400581
C  -2.8951017852  -0.7757277922  0.8284351714
C  -4.2960723478  -0.8426458497  0.8885437135
C  -5.0796242438  -0.1290943231  -0.0311196539
C  -4.4373412254  0.6523321232  -1.0043560950
Ir  -0.1662698578  0.1203621722  -0.2068189645
P  0.1956716960  -2.0647858206  -0.7624991488
C  1.9469183633  -2.2653252612  -0.1601951343
C  2.7020080692  -0.9650497539  -0.2450560772
N  1.9640455635  0.1960409388  -0.2473382913
C  2.6245435157  1.4006452994  -0.2355374595
C  4.0213338250  1.4692430773  -0.2025794180
C  4.7782320457  0.2912040550  -0.2217399174
C  4.1022256459  -0.9337282846  -0.2535180477
C  1.7784816055  2.6496407449  -0.3169951444
P  0.0361055475  2.3271317863  0.2887030004
H  4.6529795786  -1.8790819714  -0.2606048456
H  4.5071835821  2.4494521872  -0.1830251365
H  5.8718973610  0.3278050262  -0.2107542068
H  2.2727904409  3.5014227232  0.1834476942
H  1.6577020765  2.9212512165  -1.3843491998
H  1.8040022218  -2.5317462145  0.9135534844
H  2.5023164101  -3.0880860345  -0.6448023625
H  -2.5651344167  1.3478965361  -1.8183860928
H  -5.0336796350  1.2124183930  -1.7357852620
H  -6.1734550143  -0.1834216116  0.0077372450
H  -4.7789366507  -1.4633526306  1.6538404515
H  -2.3109384786  -1.3612501156  1.5512205789
H  0.0317217380  -0.2298011539  1.8625296395
O  0.0493211132  -0.4008087311  2.8807156828
H  -0.8956735621  -0.3135459454  3.1089780244
H  0.5668889099  -2.0267550558  2.8899607968
O  0.8959738724  -2.9659819803  2.7751211043
H  1.6428779563  -3.0209563370  3.3957059507
C  0.0361894687  2.8671410170  2.0558785954
H  0.4702632499  3.8750951949  2.1800612331
H  -1.0097608977  2.8740990621  2.4082414369
H  0.5881678878  2.1238162207  2.6533486723
C  -0.9444921473  3.6577647848  -0.5327946521
H  -1.9983381582  3.5430274926  -0.2289430124
H  -0.5860247123  4.6658855752  -0.2589504392
H  -0.8859622278  3.5234766193  -1.6252689415
C  0.2473226806  -2.4516279976  -2.5687105457
H  0.6360823597  -3.4684596664  -2.7566064187
H  -0.7738216400  -2.3651917400  -2.9768162194
H  0.8861694238  -1.7072949081  -3.0715059775
C  -0.6874695767  -3.5019034404  -0.0291498336
H  -1.7695957578  -3.3683263804  -0.1919846674
H  -0.3540063562  -4.4501740200  -0.4863155295
H  -0.4696268597  -3.5192469645  1.0516606529