53
charge=0, multiplicity=1, basis=def2-QZVPP, mem_total=120000, AUX_BASIS_CORR=rimp2-def2-QZVPPD, SCF_ALGORITHM=GDM, xc_grid=000099000590, num_basis=2262, num_pairs=1626094, num_threads=32
C  2.4351913790  -0.7364714451  0.0171033386
C  1.4626874022  -1.8048310740  0.1251525498
C  0.6594272559  -1.5546063442  1.2758237272
C  1.1449982228  -0.3451435532  1.9226427941
C  2.2552578597  0.1382780282  1.1507614820
W  0.3751115959  0.2741812346  -0.2785834947
C  -1.6393466129  1.8885071413  -0.0064968596
C  -0.4667386848  2.2466682118  -0.8393742820
H  -0.6479201587  2.3692016558  -1.9123193099
C  0.8723850468  2.4109949008  -0.3281193780
H  1.0099091465  2.7948859153  0.6938140228
H  1.6282713808  2.7776112332  -1.0331703201
C  -2.9492040710  2.3712709350  -0.6558491213
H  -3.0046752006  2.0749018287  -1.7144395804
H  -3.8261613916  1.9601392678  -0.1273263425
H  -2.9758122676  3.4757479178  -0.6059087943
N  0.4775198049  -0.1823482461  -2.0302001890
O  0.8124215895  -0.7133641805  -3.0687136727
C  -1.5557791690  2.3993195109  1.4381868918
H  -1.4075794425  3.4924724770  1.4124554793
H  -2.4861149230  2.1878741991  1.9887782481
H  -0.7167574413  1.9536892981  1.9964461389
C  1.3603279202  -2.9869539628  -0.7972835257
H  1.4083128136  -2.6767306215  -1.8542945285
H  2.1902189541  -3.6945495714  -0.6106341054
H  0.4124113070  -3.5264442081  -0.6437064925
C  -0.3482836771  -2.5179543829  1.8378562827
H  -1.0441283904  -2.8855433110  1.0673279262
H  0.1777148154  -3.3908704087  2.2691716060
H  -0.9475364650  -2.0613571176  2.6383068797
C  0.7411459529  0.1512321022  3.2846800251
H  -0.3271800703  -0.0266987604  3.4893775973
H  1.3167179111  -0.3654377338  4.0780760977
H  0.9296401402  1.2319960759  3.3983232247
C  3.1714176305  1.2644543978  1.5352425530
H  2.6503615740  2.0326246395  2.1291656111
H  4.0057978801  0.8765813907  2.1503096791
H  3.6041342864  1.7549384446  0.6492318079
C  3.5171541766  -0.6515082913  -1.0245037241
H  3.9393606759  0.3649771663  -1.0755804681
H  4.3425025752  -1.3511677392  -0.7908049195
H  3.1250159060  -0.9055791273  -2.0228390713
C  -1.9441785767  0.1093302017  0.0479811365
C  -2.4694401778  -0.4682643758  -1.1518575464
C  -2.5153938613  -0.3474618637  1.2684932581
C  -3.4111429921  -1.4972234569  -1.1198215444
H  -2.1132187551  -0.0983902404  -2.1181311259
C  -3.4972143581  -1.3438685857  1.2976790432
H  -2.1665558053  0.0724517064  2.2157538653
C  -3.9379260196  -1.9408806705  0.1077980228
H  -3.7533831302  -1.9455850225  -2.0588854012
H  -3.9076783987  -1.6698412919  2.2600799657
H  -4.6976072976  -2.7291801312  0.1316277463