60
charge=1, multiplicity=1, basis=def2-QZVPP, mem_total=240000, AUX_BASIS_CORR=rimp2-def2-QZVPPD, SCF_ALGORITHM=GDM, xc_grid=000099000590, num_basis=2484, num_pairs=1669449, num_threads=64
N  1.1954358930  1.2981299387  1.4722271463
C  2.0875238294  1.0341845517  -1.2683661344
H  2.9496539596  0.7376571509  -0.6465741005
H  2.3538086870  1.0392166357  -2.3338797797
C  1.3466130475  2.2254848308  -0.8272547360
C  0.8417276870  2.3573376470  0.5142589062
C  -0.0265767064  3.4093269056  0.8742235943
H  -0.3788745667  3.5008353389  1.9046383832
C  -0.4322571226  4.3455437922  -0.0747111072
H  -1.1004341043  5.1620551580  0.2135199490
C  0.0279709482  4.2301275300  -1.4009973434
H  -0.2870133789  4.9602402094  -2.1531090813
C  0.8865161187  3.1973853797  -1.7621478889
H  1.2408876608  3.1177259777  -2.7949547941
C  0.2390361229  1.1242196136  2.5911920648
H  0.2589870374  1.9757380929  3.2953626460
H  0.5114955685  0.2117543318  3.1459064758
H  -0.7886480529  1.0247422153  2.1972838716
C  2.5911677797  1.3811505123  1.9759052504
H  3.2776598902  1.5414159415  1.1333131190
H  2.8509365076  0.4427476885  2.4915764285
H  2.6877414411  2.2268176277  2.6805572504
Sc  0.4354726544  0.0013813059  -0.1993672867
C  1.8643418933  -2.6352834658  1.1825569258
C  3.3498497950  -2.4758454569  0.8581800888
N  1.0116096098  -2.1013250310  0.0829452287
C  3.6918050686  -3.1602213779  -0.4725713240
C  2.8109642656  -2.5977247999  -1.5961640749
C  1.3250142814  -2.7012422858  -1.2468822653
C  -0.4295841377  -2.0947723531  0.3381347076
H  1.5886380220  -2.0963552692  2.1061606183
H  1.6144660216  -3.7045516260  1.3381627931
H  3.5972533515  -1.3988664241  0.7988921401
H  3.9409872272  -2.9005352850  1.6876285772
H  4.7578811148  -3.0177399465  -0.7165516951
H  3.5282620639  -4.2507267390  -0.3771319747
H  3.0656149960  -1.5382133697  -1.7761001160
H  2.9827043357  -3.1379687725  -2.5427194851
H  0.7052777788  -2.1777116768  -2.0013360163
H  0.9902829567  -3.7593452694  -1.2383251978
H  -0.9239888253  -3.0359700986  0.0568183402
H  -0.6134903145  -1.8775565399  1.4073659311
C  -1.8710392619  -0.9932853708  -0.7174669382
H  -1.8561414507  -1.7083575485  -1.5516821848
C  -1.5557463574  0.3674049192  -1.0601053680
H  -2.0602373326  1.1733105700  -0.5064237665
H  -1.3485046688  0.6021369679  -2.1152850326
C  -2.9876345518  -1.2526871237  0.2823346714
H  -2.9380810248  -2.2827274867  0.6805090075
H  -2.8709670121  -0.5693416653  1.1469787269
C  -4.3733476061  -1.0312754363  -0.3548704424
H  -4.4807952964  -1.7022650432  -1.2290807162
H  -4.4310054690  0.0005966017  -0.7485581393
C  -5.5261608530  -1.2791166986  0.6294309587
H  -5.4549404774  -2.3123668183  1.0212177563
H  -5.4049691225  -0.6102389499  1.5039916431
C  -6.9058027633  -1.0596667523  -0.0011955647
H  -7.7111539417  -1.2420921506  0.7302850962
H  -7.0143311181  -0.0247155624  -0.3723070405
H  -7.0658353844  -1.7408439545  -0.8560777127