21
charge=0, multiplicity=1, basis=def2-QZVPP, AUX_BASIS_CORR=rimp2-def2-QZVPPD, SCF_ALGORITHM=GDM, xc_grid=000099000590, mem_total=15000, num_basis=958, num_pairs=360137, num_threads=4
C  -2.0947933693  1.0998602954  0.5293481950
C  -2.1006400218  -0.1653802398  1.2070441817
C  -2.1012690661  -1.1967075557  0.2131414498
C  -2.1037735036  -0.5745026889  -1.0728021750
C  -2.0982755633  0.8496582340  -0.8755060589
Pd  -0.1069942588  -0.0025966255  0.0007348102
H  -2.1085107443  -2.2708027691  0.4063005375
H  -2.1085470738  -0.3141510776  2.2879288980
H  -2.0979740098  2.0805479278  1.0080528046
H  -2.1168959155  -1.0868641626  -2.0360768312
H  -2.1071157988  1.6038696858  -1.6640317364
C  1.2861880019  1.3574915950  -0.0043314371
C  1.2912426672  -1.3584293499  -0.0043702107
C  2.6664181774  1.2414276677  -0.0002770067
C  2.6710462396  -1.2362762819  -0.0002596244
C  3.3401946169  0.0038490246  0.0031435150
H  0.8805509611  2.3840381698  -0.0118529840
H  3.2792432399  2.1540703623  -0.0016163810
H  4.4374865403  0.0059160080  0.0055275680
H  3.2876762091  -2.1463665460  -0.0015231795
H  0.8915840782  -2.3873337099  -0.0119470506