37
charge=0, multiplicity=1, basis=def2-QZVPP, mem_total=60000, AUX_BASIS_CORR=rimp2-def2-QZVPPD, SCF_ALGORITHM=GDM, xc_grid=000099000590, num_basis=1638, num_pairs=954523, num_threads=16
Fe  -0.5963089678  -0.0845750193  -0.1782247314
C  -2.3120039723  -0.0798649067  0.0452741211
O  -3.4720936093  -0.0623696592  0.1813278558
P  -0.5357017932  -1.7534061394  -1.6320450067
C  0.7504227080  -2.6526083615  -0.6772505364
C  0.4551425642  -2.5360812787  0.7400232812
N  -0.2037214445  -1.4849030700  1.1393801562
C  -0.4015820220  -1.0508418340  2.5134431401
C  0.1462818117  0.3869573446  2.5899530010
N  -0.2425206030  1.0594958534  1.3612625212
C  -0.1644008680  2.3901136475  1.1957621477
C  -0.3576147462  3.0008575714  -0.0377317757
P  -0.6695419189  1.8128382753  -1.3255411149
H  -1.8341215944  2.2146725685  -2.0470324140
H  0.2642417260  1.9767634010  -2.3922724481
H  -0.3613227196  4.0868148992  -0.1591259963
H  0.0633186122  3.0072044475  2.0824045902
H  -0.2415818019  0.9047279906  3.4905775745
H  1.2534156526  0.3315835700  2.6911125257
H  0.0984126308  -1.7226157436  3.2370777039
H  -1.4874976309  -1.0452587637  2.7232951843
H  0.8818868291  -3.2414213232  1.4743402177
H  1.1791080971  -3.5946644568  -1.0436126762
H  -1.6304239124  -2.6288579737  -1.8969434380
H  0.0036788355  -1.6955449835  -2.9458498930
O  1.4131068226  -0.1785368910  -0.6516893997
C  2.4904891839  0.5099908660  -0.0159980035
C  3.1208699816  1.4919897873  -1.0080050765
H  2.3743110529  2.2385629873  -1.3256088422
H  3.9690129636  2.0310119529  -0.5474238922
H  3.4870794384  0.9533877813  -1.9004790640
C  3.5074854100  -0.5001875399  0.5294831827
H  4.3459296615  0.0170376044  1.0287295077
H  3.9226672986  -1.1162377433  -0.2891992851
H  3.0352998717  -1.1751518232  1.2647790590
H  2.0828007669  1.0918966122  0.8319451826
H  1.4612807470  -1.4667970840  -0.7207147588