45
charge=0, multiplicity=1, basis=def2-QZVPP, mem_total=120000, AUX_BASIS_CORR=rimp2-def2-QZVPPD, SCF_ALGORITHM=GDM, xc_grid=000099000590, num_basis=1806, num_pairs=1096930, num_threads=32
Ta  0.0260549746  -0.0000692987  -0.0725056750
N  -0.1279670703  1.6721607533  1.0879621273
N  -2.0274037147  0.0006378836  -0.3563505271
N  2.1052259921  -0.0002702384  0.0512753592
N  -0.1284954061  -1.6735170971  1.0860170003
C  0.0083536647  1.2657996240  -2.2416090692
H  -1.0648182510  1.4357439831  -2.3754528474
H  0.6458543848  2.1497650279  -2.3572388880
C  0.5835527340  0.0013765574  -2.4748433728
H  1.6709289787  0.0012415367  -2.6067467297
C  0.0078475158  -1.2631042711  -2.2429540141
H  -1.0653659080  -1.4324858825  -2.3772103262
H  0.6450255720  -2.1471667896  -2.3596476232
H  -3.1872370116  1.2324524127  -1.6503531263
C  -2.8292899670  1.1935067084  -0.5974286716
H  -2.2397502955  2.1013834940  -0.4026182927
H  -3.7315592867  1.2022229026  0.0501139641
H  -3.7322976078  -1.2005709470  0.0480922589
C  -2.8298342083  -1.1915181559  -0.5991750266
H  -3.1874975251  -1.2289474399  -1.6522524353
H  -2.2408495487  -2.0999693033  -0.4053434236
H  4.1978408291  0.0008471227  -0.3196987576
C  3.2386208786  0.0009471292  -0.8703922290
H  3.2429466475  0.8963091935  -1.5242750307
H  3.2436407632  -0.8933016722  -1.5257937662
H  3.1864496612  -0.8981795676  1.6653330985
C  2.5699343350  -0.0013654164  1.4448121325
H  3.1855466957  0.8956512775  1.6670444264
H  1.7136530323  -0.0024436981  2.1383290520
H  1.6168510776  2.5547084889  0.2999017747
C  0.7723866158  2.8124154385  0.9577239315
H  1.1752129889  3.1173347664  1.9475325960
H  0.2499225233  3.6942180205  0.5268976075
H  -1.7612006033  2.8523133040  1.8072640712
C  -1.1792938173  1.9386589602  2.0597466214
H  -1.8798263564  1.0909020586  2.1154762026
H  -0.7452740845  2.0971738325  3.0703510523
C  -1.1799994047  -1.9408698551  2.0573851413
H  -0.7461770676  -2.1003349867  3.0679240623
H  -1.7618690901  -2.8542754344  1.8039252696
H  -1.8805178959  -1.0931468055  2.1137535169
H  0.2491770806  -3.6951036881  0.5231511864
C  0.7717525815  -2.8137503203  0.9547491086
H  1.1745627254  -3.1195839828  1.9442805472
H  1.6162232919  -2.5555392959  0.2971319229