43
charge=0, multiplicity=1, basis=def2-QZVPP, mem_total=60000, AUX_BASIS_CORR=rimp2-def2-QZVPPD, SCF_ALGORITHM=GDM, xc_grid=000099000590, num_basis=1793, num_pairs=997005, num_threads=16
C  0.5178903539  4.1584273058  -0.1212261925
C  -0.7435127219  3.5556535279  -0.2219157398
C  -0.8806795955  2.1575205882  -0.3097894188
C  0.2657276510  1.3148344633  -0.3227478576
C  1.5320177044  1.9535975548  -0.1738056661
C  1.6601184736  3.3514018567  -0.0759448111
C  -2.2699513062  1.5469000999  -0.3223574724
C  -2.5063608529  0.6586736622  0.9163888582
N  -3.5003252060  -0.3937505364  0.7028638640
Pt  0.2733736838  -0.8408010444  -0.3881462748
C  -1.6422324163  -1.4209000503  -1.9896248764
C  2.7548990770  1.0588505044  -0.0409379161
P  2.1000513236  -0.4884824655  0.7332514791
H  -1.6450041085  4.1815354402  -0.2184409478
H  2.6512474291  3.8070022695  0.0408501132
H  0.6064251957  5.2482167309  -0.0524541909
H  3.1726151287  0.7679161939  -1.0241839686
H  3.5677347956  1.5122814280  0.5561118502
H  -2.3904780269  0.9162052670  -1.2195693026
H  -3.0306882590  2.3448387894  -0.3858859367
H  -2.7504127743  1.2984502505  1.8005366121
C  3.4152902555  -1.7633829655  0.6762336853
C  1.8816776828  -0.0899474236  2.5118793695
H  -1.5496397242  0.1473308988  1.1473313372
C  -4.8387066503  0.1140952293  0.4349098817
C  -3.4886665330  -1.3687474481  1.7855765954
H  -0.6036347766  -1.0165888049  -2.1819603701
H  -2.2995285909  -0.8176390981  -2.6353660739
H  -1.6448820859  -2.4794074317  -2.2779207099
H  -2.0200895662  -1.3122294715  -0.9490380074
H  -5.5182584325  -0.7290005815  0.2199183893
H  -4.8247596427  0.7742807790  -0.4479988678
H  -5.2668296412  0.6921791070  1.2905889535
H  -4.1883658572  -2.1908020162  1.5537260937
H  -3.7831681283  -0.9348741856  2.7724475243
H  -2.4737339029  -1.7919915172  1.8849338266
H  2.8529983189  0.1535639338  2.9771362988
H  1.4248624023  -0.9498860543  3.0274728866
H  1.2033717565  0.7755626351  2.5805699078
H  4.3284734619  -1.3993880360  1.1794588932
H  3.6340492121  -1.9983032657  -0.3774089212
H  3.0513903471  -2.6776728318  1.1716197751
H  0.4104560920  -2.4892052846  -0.3499960442