39
charge=0, multiplicity=1, basis=def2-QZVPP, mem_total=60000, AUX_BASIS_CORR=rimp2-def2-QZVPPD, SCF_ALGORITHM=GDM, xc_grid=000099000590, num_basis=1700, num_pairs=957721, num_threads=16
C  1.9704086452  -1.7110538120  -0.8539594423
C  2.3405132868  -0.3062590781  -0.4461659596
N  1.2581997305  0.4697820208  -0.2198088387
C  1.3598441608  1.8054642931  0.1481054368
C  2.6829971714  2.3485650203  0.2495641993
C  3.7890967321  1.5486805841  0.0118306037
C  3.6392731465  0.1830336779  -0.3379659826
C  0.1451752941  2.4822022825  0.4354686624
P  -1.3314518565  1.6802231945  -0.1983852487
H  4.5017859532  -0.4623271928  -0.5224511983
H  2.8008853152  3.4004565007  0.5247439426
H  4.7939452801  1.9775719083  0.0972938169
C  0.2330711100  -3.4144162533  -0.6955893388
C  1.2157284986  -2.4988307390  1.3291816382
H  0.1757986003  3.5611319278  0.6340733272
H  2.8258928931  -2.4073330083  -0.7481543552
H  1.6516477475  -1.7024068470  -1.9108375572
C  -1.7930289214  2.3999910061  -1.8419709597
C  -2.7269910947  2.2741351149  0.8600906165
H  -2.7168659876  1.9219098950  -2.2109858856
H  -1.9388133805  3.4922722669  -1.7693458481
H  -0.9738860147  2.1827766984  -2.5457746187
H  -3.6777485505  1.8551947818  0.4902228450
H  -2.5714595699  1.9383110260  1.8985588428
H  -2.7848516147  3.3770850464  0.8502796892
H  1.9761446953  -3.3069156832  1.3396261044
H  1.6304693468  -1.5893576915  1.7866185078
H  0.3344420220  -2.8143255762  1.9075454790
H  0.9929207138  -4.2223032249  -0.7427377797
H  -0.6290080273  -3.7579235993  -0.1050345620
H  -0.1090461533  -3.1599475754  -1.7090977040
C  -2.2842680717  -1.2631787757  -0.0221110375
O  -3.3588969644  -1.7419993542  -0.0056581314
Ru  -0.6141137083  -0.4736798489  -0.1014839174
H  -0.7166895222  -0.6602083979  -1.6816792944
O  -0.1643077620  0.0837741775  2.1487438458
H  -1.0224931373  0.1030443706  2.6098778068
H  0.0030747596  1.0500190917  1.9094761774
N  0.7935447988  -2.1988615970  -0.0610467728