19
charge=0, multiplicity=1, basis=def2-QZVPP, AUX_BASIS_CORR=rimp2-def2-QZVPPD, SCF_ALGORITHM=GDM, xc_grid=000099000590, mem_total=15000, num_basis=843, num_pairs=281130, num_threads=4
C  -0.6215592429  -1.2784061148  0.8127228702
C  -1.9784759582  -1.3054430946  1.1385821015
C  -2.9861231932  -0.6012213503  0.4527404965
C  -2.7323813864  0.1992279683  -0.6821203905
C  -1.4417816004  0.3705700950  -1.1633514197
Rh  0.2847901985  0.0060073310  -0.3466793457
P  0.4700395167  1.9829865359  0.7271320808
P  2.3903374586  -1.0032802615  0.0542522300
H  0.0331263854  -1.8647925465  1.4839469236
H  -2.2963575502  -1.9508388934  1.9713488978
H  -4.0256318987  -0.7317444386  0.7803746158
H  -1.3204814935  0.8466800023  -2.1611199893
H  -3.5959544771  0.5950919698  -1.2360702961
H  3.0820978960  -1.5185407352  -1.0812348218
H  2.4140274719  -2.2044617791  0.8241130076
H  3.5562747473  -0.4340990139  0.6609881173
H  1.2882258502  3.1342889957  0.4739856206
H  0.8357716614  1.8486478461  2.0947749974
H  -0.7443050879  2.6964020085  0.9217738044