19
charge=1, multiplicity=1, basis=def2-QZVPP, AUX_BASIS_CORR=rimp2-def2-QZVPPD, SCF_ALGORITHM=GDM, xc_grid=000099000590, mem_total=15000, num_basis=843, num_pairs=291313, num_threads=4
C  -1.8670052201  -1.1434380001  0.3699338129
C  -2.0071604437  -0.6978589978  -1.0240733442
C  -2.0071604454  0.6978590002  -1.0240733480
C  -1.8670052260  1.1434380003  0.3699338121
C  -1.9181616220  -0.0000000065  1.2282221222
Pt  0.0702728085  0.0000000003  0.0226436269
P  1.6106353991  1.6646879982  -0.0484548897
P  1.6106353973  -1.6646879995  -0.0484548919
H  -1.9157879496  -0.0000000015  2.3184781732
H  -1.8894736643  -2.1849359960  0.6986943254
H  -2.0632745009  1.3524630013  -1.8951410246
H  -1.8894736725  2.1849359990  0.6986943285
H  1.5900469918  2.6065620009  1.0096305905
H  1.5900469986  -2.6065619990  1.0096305794
H  -2.0632744961  -1.3524629927  -1.8951410311
H  1.5983497254  -2.5356819970  -1.1665311770
H  2.9736128442  -1.2833399934  -0.0303184392
H  1.5983497217  2.5356820023  -1.1665311655
H  2.9736128502  1.2833400026  -0.0303184379