11
charge=0, multiplicity=1, basis=def2-QZVPP, AUX_BASIS_CORR=rimp2-def2-QZVPPD, SCF_ALGORITHM=GDM, xc_grid=000099000590, mem_total=7500, num_basis=663, num_pairs=178924, num_threads=2
Cr  -0.0000460000  0.0000410000  -0.4055690000
O  -2.2779070000  2.0431300000  -0.3178190000
C  -1.4222800000  1.2754700000  -0.3913590000
C  -0.0003250000  -0.0001920000  1.4295590000
O  -0.0005710000  -0.0004220000  2.5876550000
C  1.4223590000  -1.2750890000  -0.3912110000
O  2.2782850000  -2.0424290000  -0.3177090000
C  1.2753900000  1.4222110000  -0.3908220000
O  2.0430710000  2.2777810000  -0.3167600000
C  -1.2752670000  -1.4223510000  -0.3911350000
O  -2.0426470000  -2.2782200000  -0.3174340000