12
charge=0, multiplicity=1, basis=def2-QZVPP, AUX_BASIS_CORR=rimp2-def2-QZVPPD, SCF_ALGORITHM=GDM, xc_grid=000099000590, mem_total=3750, num_basis=522, num_pairs=129225, num_threads=1
C  1.3919470000  0.1038930000  -0.0000050000
C  0.7859460000  -1.1535100000  -0.0000020000
C  -0.6059970000  -1.2574030000  -0.0000050000
C  -1.3919470000  -0.1038920000  -0.0000020000
C  -0.7859470000  1.1535090000  -0.0000060000
C  0.6059980000  1.2574030000  -0.0000020000
H  2.4755030000  0.1847690000  0.0000180000
H  1.3977750000  -2.0514480000  0.0000270000
H  -1.0777450000  -2.2362170000  0.0000180000
H  -2.4755020000  -0.1847740000  0.0000310000
H  -1.3977730000  2.0514490000  0.0000140000
H  1.0777420000  2.2362190000  0.0000310000