7
charge=0, multiplicity=1, basis=def2-QZVPP, AUX_BASIS_CORR=rimp2-def2-QZVPPD, SCF_ALGORITHM=GDM, xc_grid=000099000590, mem_total=3750, num_basis=331, num_pairs=53815, num_threads=1
C  1.3066590000  -1.0175000000  -0.0000280000
C  0.4885150000  0.2408330000  -0.0000790000
H  2.3673010000  -0.7601670000  -0.0013000000
H  1.0526240000  -1.6138120000  -0.8810620000
H  1.0545550000  -1.6120760000  0.8827740000
O  0.8659710000  1.3677200000  0.0000180000
Cl  -1.3043120000  -0.1350410000  0.0000050000