8
charge=0, multiplicity=1, basis=def2-QZVPP, AUX_BASIS_CORR=rimp2-def2-QZVPPD, SCF_ALGORITHM=GDM, xc_grid=000099000590, mem_total=3750, num_basis=294, num_pairs=43766, num_threads=1
C  -0.7658500000  -0.0000040000  0.0000000000
C  0.7658500000  0.0000040000  0.0000000000
H  -1.1623810000  -1.0209360000  -0.0228500000
H  -1.1624090000  0.5302510000  -0.8727200000
H  -1.1624110000  0.4906750000  0.8955680000
H  1.1624100000  -0.5302390000  0.8727270000
H  1.1624110000  -0.4906860000  -0.8955610000
H  1.1623810000  1.0209360000  0.0228360000