12
charge=0, multiplicity=1, basis=def2-QZVPP, AUX_BASIS_CORR=rimp2-def2-QZVPPD, SCF_ALGORITHM=GDM, xc_grid=000099000590, mem_total=7500, num_basis=700, num_pairs=202776, num_threads=2
Mn  -0.0000150000  0.0000340000  -0.1561120000
O  -2.9665560000  0.0690320000  -0.5685650000
C  -1.8350480000  0.0427030000  -0.3762210000
C  0.0001060000  -0.0002660000  1.6914890000
O  0.0001960000  -0.0005010000  2.8426480000
C  1.8350040000  -0.0425580000  -0.3763740000
O  2.9665010000  -0.0687950000  -0.5687930000
C  0.0426080000  1.8349860000  -0.3766890000
O  0.0688750000  2.9664130000  -0.5695320000
C  -0.0426550000  -1.8348860000  -0.3770540000
O  -0.0689620000  -2.9662800000  -0.5700730000
H  -0.0001450000  0.0003180000  -1.7335710000