30
charge=0, multiplicity=1, basis=def2-QZVPP, AUX_BASIS_CORR=rimp2-def2-QZVPPD, SCF_ALGORITHM=GDM, xc_grid=000099000590, mem_total=30000, num_basis=1294, num_pairs=549807, num_threads=8
Ir  0.0000090000  0.1194410000  -0.0011340000
P  2.3131640000  -0.0268540000  0.0008640000
C  3.2661550000  1.5380410000  0.0013010000
C  2.9907760000  -0.9385460000  1.4379220000
H  4.0767530000  -1.0563640000  1.3552440000
H  4.0808270000  -1.0595850000  -1.3456380000
H  2.5083320000  -1.9186050000  1.4748230000
H  2.5119340000  -1.9200620000  -1.4708430000
H  3.0008830000  2.1236030000  0.8857530000
H  2.7489750000  -0.3953010000  2.3553270000
C  2.9953460000  -0.9405040000  -1.4327740000
H  4.3435100000  1.3424370000  0.0038860000
H  2.7578700000  -0.3977390000  -2.3515800000
H  3.0048250000  2.1216490000  -0.8856280000
P  -2.3132390000  -0.0262970000  0.0008210000
C  -3.2660590000  1.5386850000  -0.0017510000
C  -2.9952400000  -0.9426280000  -1.4311830000
H  -2.5099740000  -1.9159370000  1.4773170000
H  -4.0773460000  -1.0518850000  1.3575220000
H  -2.7481660000  -0.3912400000  2.3560430000
C  -2.9911810000  -0.9352990000  1.4394500000
H  -2.5100850000  -1.9213390000  -1.4686100000
H  -4.0804200000  -1.0635280000  -1.3428250000
H  -4.3434380000  1.3432070000  -0.0016010000
H  -3.0025410000  2.1218370000  -0.8883210000
H  -2.7596720000  -0.4004000000  -2.3508030000
H  -3.0028070000  2.1246110000  0.8830730000
C  0.0006490000  1.9400820000  -0.0014900000
O  0.0012400000  3.1105050000  -0.0019790000
Cl  -0.0006830000  -2.2663570000  -0.0020050000