27
charge=0, multiplicity=1, basis=def2-QZVPP, AUX_BASIS_CORR=rimp2-def2-QZVPPD, SCF_ALGORITHM=GDM, xc_grid=000099000590, mem_total=30000, num_basis=1185, num_pairs=583316, num_threads=8
Mo  -0.0002660000  0.0732850000  -0.0017590000
C  1.7258930000  -0.7739900000  -1.2266810000
C  2.2116960000  0.4146680000  -0.6109950000
C  2.1923260000  0.2508110000  0.8092610000
C  1.6852300000  -1.0359260000  1.1057150000
C  1.4135130000  -1.6800580000  -0.1531900000
H  1.7041880000  -0.9878380000  -2.2848810000
H  2.5361070000  1.3018690000  -1.1331020000
H  2.4931900000  0.9880990000  1.5377780000
H  1.5738280000  -1.4673400000  2.0899780000
H  1.0678010000  -2.6946610000  -0.2766510000
C  -1.4072210000  -1.6858040000  0.1127810000
C  -1.7095310000  -0.8149760000  1.2183510000
C  -2.2027100000  0.2724980000  -0.7752020000
C  -1.6950770000  -1.0024560000  -1.1220450000
H  -1.6696080000  -1.0611000000  2.2690760000
H  -2.5286900000  1.2583710000  1.2050670000
C  -2.2074910000  0.3905360000  0.6494930000
H  -1.6015660000  -1.4032880000  -2.1208640000
H  -1.0581550000  -2.7029540000  0.2000590000
C  0.0408800000  2.2145060000  0.7208620000
H  0.9783660000  2.5047940000  1.1847800000
H  -0.8174110000  2.5273710000  1.3073080000
C  -0.0448410000  2.2153130000  -0.7186810000
H  0.8141490000  2.5262110000  -1.3051020000
H  -0.9808750000  2.5099770000  -1.1824450000
H  -2.5161600000  1.0317990000  -1.4751340000