68
charge=0, multiplicity=1, basis=def2-QZVPP, AUX_BASIS_CORR=rimp2-def2-QZVPP, mem_total=240000, SCF_ALGORITHM=GDM, xc_grid=000099000590, num_basis=2893, num_pairs=2101595, num_threads=64
Ru  0.9471580000  -0.8297270000  -0.7454910000
Cl  0.7595360000  -0.0298430000  -2.8893530000
Cl  0.9242490000  -2.8131960000  0.4065260000
P  -0.8928580000  0.0593460000  0.0705190000
C  2.1057700000  0.2984070000  0.1205110000
C  -1.0608480000  0.3043870000  1.9044540000
C  -0.8395710000  -1.0047810000  2.6816830000
C  -1.2043930000  -0.8216490000  4.1610760000
C  -0.3980970000  0.3188840000  4.7940810000
C  -0.5690620000  1.6192860000  3.9997520000
C  -0.2032350000  1.4220100000  2.5204940000
C  -1.3611930000  1.6752230000  -0.7234420000
C  -0.1906700000  2.6682180000  -0.8631570000
C  -0.6170100000  3.8745150000  -1.7098520000
C  -1.8460470000  4.5724180000  -1.1152920000
C  -3.0051120000  3.5844260000  -0.9403990000
C  -2.5856210000  2.3691960000  -0.0982140000
C  -2.2668250000  -1.1499120000  -0.3189480000
C  -3.5723870000  -1.0715220000  0.4955850000
C  -4.4641030000  -2.2788000000  0.1619190000
C  -4.7718030000  -2.3534800000  -1.3386520000
C  -3.4813980000  -2.3683790000  -2.1669700000
C  -2.5872340000  -1.1688350000  -1.8254500000
H  1.7849460000  1.2029550000  0.6457610000
H  -2.1158210000  0.6009660000  2.0149470000
H  0.2124020000  -1.2940980000  2.5863110000
H  -1.4184470000  -1.8246440000  2.2459130000
H  -1.0283000000  -1.7588510000  4.7016670000
H  -2.2783520000  -0.6001130000  4.2470460000
H  0.6655000000  0.0424960000  4.8047920000
H  -0.6996820000  0.4684380000  5.8375870000
H  0.0509420000  2.4150930000  4.4296140000
H  -1.6136220000  1.9557840000  4.0688770000
H  -0.3349420000  2.3629100000  1.9782680000
H  0.8547490000  1.1452010000  2.4476400000
H  -1.6189110000  1.3572340000  -1.7438170000
H  0.6621060000  2.1660510000  -1.3253280000
H  0.1250600000  3.0192800000  0.1274840000
H  -0.8467350000  3.5276980000  -2.7267100000
H  0.2190330000  4.5786950000  -1.7953160000
H  -2.1560250000  5.4106290000  -1.7505280000
H  -1.5830380000  4.9961800000  -0.1350730000
H  -3.3363840000  3.2346080000  -1.9281910000
H  -3.8647270000  4.0785430000  -0.4714410000
H  -2.3380560000  2.7028790000  0.9180400000
H  -3.4258970000  1.6747200000  -0.0100600000
H  -1.7828120000  -2.1059720000  -0.0705820000
H  -4.1138220000  -0.1495090000  0.2519180000
H  -3.3694030000  -1.0535030000  1.5703620000
H  -5.3935340000  -2.2210080000  0.7412230000
H  -3.9478640000  -3.1969720000  0.4751600000
H  -5.3742290000  -1.4794340000  -1.6257520000
H  -5.3767440000  -3.2414090000  -1.5571960000
H  -3.7143220000  -2.3630520000  -3.2382240000
H  -2.9258510000  -3.2944010000  -1.9646420000
H  -1.6667310000  -1.1935890000  -2.4177650000
H  -3.1117600000  -0.2412790000  -2.0937870000
C  3.5464960000  0.1265860000  0.0283640000
C  4.3898770000  1.2282370000  0.2860460000
C  5.7701460000  1.1133460000  0.1611040000
C  6.3394670000  -0.1064600000  -0.2122580000
C  5.5194170000  -1.2129310000  -0.4536770000
C  4.1399650000  -1.1022360000  -0.3328270000
H  3.9432010000  2.1771010000  0.5733600000
H  6.4052050000  1.9728550000  0.3573010000
H  5.9613390000  -2.1668570000  -0.7268870000
H  3.5080280000  -1.9752610000  -0.4805810000
H  7.4178840000  -0.1978210000  -0.3050990000