26
charge=0, multiplicity=1, basis=def2-QZVPP, AUX_BASIS_CORR=rimp2-def2-QZVPPD, SCF_ALGORITHM=GDM, xc_grid=000099000590, mem_total=30000, num_basis=1241, num_pairs=535851, num_threads=8
C  -0.2151430000  2.4749120000  0.0009430000
C  0.4050070000  3.7190490000  0.0010690000
C  1.7978440000  3.7760330000  0.0006780000
C  2.5188860000  2.5877800000  0.0001660000
H  -1.2963030000  2.3571790000  0.0011830000
H  -0.1984740000  4.6205680000  0.0015020000
H  2.3163450000  4.7298510000  0.0007890000
H  3.6025780000  2.6110290000  -0.0000410000
N  0.4777950000  1.3246840000  0.0004390000
C  1.8352770000  1.3672440000  0.0000570000
C  2.5099920000  0.0598870000  -0.0003570000
N  1.6948400000  -1.0364210000  0.0008760000
C  2.2570010000  -2.2603080000  0.0005350000
C  4.4720960000  -1.3479190000  -0.0023980000
C  3.6299830000  -2.4593600000  -0.0010500000
H  1.5628210000  -3.0926870000  0.0015150000
H  4.0237720000  -3.4701020000  -0.0013370000
C  3.9007510000  -0.0819410000  -0.0020400000
H  4.5329320000  0.7983140000  -0.0032230000
H  5.5511180000  -1.4640510000  -0.0038530000
Pd  -0.3369170000  -0.6545720000  0.0010710000
C  -0.8589750000  -2.6264040000  0.0026910000
H  -0.4130780000  -3.0609300000  0.9070260000
H  -0.4150910000  -3.0622780000  -0.9019500000
H  -1.9337160000  -2.8070100000  0.0041170000
I  -2.8407450000  -0.0249290000  -0.0012440000