24
charge=0, multiplicity=1, basis=def2-QZVPP, AUX_BASIS_CORR=rimp2-def2-QZVPPD, SCF_ALGORITHM=GDM, xc_grid=000099000590, mem_total=15000, num_basis=962, num_pairs=344611, num_threads=4
P  2.2312890000  -0.4302740000  -0.4631900000
P  -2.2312270000  0.4302300000  -0.4632370000
C  0.6018060000  0.4755390000  -0.3988010000
C  -0.6017460000  -0.4755820000  -0.3988120000
H  0.5584060000  1.1250890000  -1.2820070000
H  0.5842310000  1.1276830000  0.4853080000
H  -0.5583970000  -1.1250710000  -1.2820690000
H  -0.5841330000  -1.1277670000  0.4852580000
C  -2.2973870000  1.0578350000  1.2830060000
H  -3.2940230000  1.4648950000  1.4820760000
H  -1.5750390000  1.8690760000  1.4148570000
H  -2.0842390000  0.2669040000  2.0130680000
C  -3.3652290000  -1.0281030000  -0.2827480000
H  -3.0890310000  -1.6636940000  0.5676400000
H  -3.3366180000  -1.6275930000  -1.1982310000
H  -4.3926120000  -0.6767180000  -0.1432910000
C  3.3652190000  1.0281230000  -0.2827800000
H  4.3926330000  0.6768690000  -0.1432420000
H  3.0889010000  1.6637660000  0.5675230000
H  3.3365750000  1.6275220000  -1.1983280000
C  2.2972800000  -1.0577630000  1.2830730000
H  1.5748830000  -1.8689710000  1.4148410000
H  2.0840090000  -0.2667650000  2.0130280000
H  3.2938570000  -1.4648630000  1.4823480000