59
charge=0, multiplicity=1, basis=def2-QZVPP, mem_total=240000, AUX_BASIS_CORR=rimp2-def2-QZVPPD, SCF_ALGORITHM=GDM, xc_grid=000099000590, num_basis=2366, num_pairs=1670825, num_threads=64
Ru  -0.0225660000  -0.0708750000  -0.3791440000
P  0.1865860000  -1.8361380000  1.0612730000
P  -0.1073480000  1.7869690000  0.9831280000
P  -2.3376880000  -0.0315490000  -0.5746080000
P  2.2584150000  0.2174200000  -0.6547710000
H  -1.0113200000  0.6310230000  -2.9645880000
C  -0.0841260000  0.2447540000  -2.5368180000
C  0.0022350000  -1.1776770000  -2.2380710000
H  -0.8611380000  -1.8067990000  -2.4360010000
C  -1.2654050000  -2.9007680000  1.5105190000
C  0.8821990000  -1.6763650000  2.7775430000
C  1.2732760000  -3.2028180000  0.4345930000
C  -0.2186570000  3.4822460000  0.2203820000
C  -1.4742020000  1.9849570000  2.2290680000
C  1.2619310000  2.1590690000  2.1867930000
C  -3.1324420000  -1.0899290000  -1.8682090000
C  -3.5033250000  -0.4549410000  0.8066190000
C  -3.0658260000  1.5891880000  -1.0964900000
C  3.1155130000  -0.7385670000  -1.9880820000
C  3.4841630000  -0.1130390000  0.6951040000
C  2.8179180000  1.9054770000  -1.1671310000
H  0.7759940000  0.7345040000  -2.9975080000
H  0.9236980000  -1.7052240000  -2.4683320000
H  -1.7979940000  -3.1963680000  0.6017400000
H  -1.9515130000  -2.3431870000  2.1523430000
H  -0.9405520000  -3.8029990000  2.0425630000
H  0.2208580000  -1.0334590000  3.3673920000
H  1.8664040000  -1.2034170000  2.7382740000
H  0.9733800000  -2.6485840000  3.2783750000
H  0.8699240000  -3.5509330000  -0.5204880000
H  1.3261840000  -4.0427720000  1.1380760000
H  2.2842880000  -2.8293560000  0.2527020000
H  -0.2554930000  4.2757190000  0.9775040000
H  -1.1113070000  3.5401330000  -0.4066660000
H  0.6465330000  3.6424410000  -0.4275000000
H  -1.3407440000  2.9048120000  2.8100470000
H  -1.4642320000  1.1286160000  2.9104060000
H  -2.4506990000  2.0229130000  1.7417390000
H  1.0246460000  3.0519580000  2.7765640000
H  2.2062810000  2.3328260000  1.6664150000
H  1.3915280000  1.3095030000  2.8629300000
H  -4.2145740000  -0.9207760000  -1.8649950000
H  -2.9336770000  -2.1449290000  -1.6603240000
H  -2.7372370000  -0.8499670000  -2.8582030000
H  -4.4964960000  -0.0372970000  0.6068650000
H  -3.1392360000  -0.0755710000  1.7617480000
H  -3.5914010000  -1.5410560000  0.8774590000
H  -4.1284750000  1.4840930000  -1.3433500000
H  -2.5206830000  1.9551600000  -1.9699510000
H  -2.9640310000  2.3259870000  -0.2966310000
H  4.1711260000  -0.4491280000  -2.0232840000
H  2.6573320000  -0.5331470000  -2.9585580000
H  3.0436780000  -1.8111630000  -1.7909710000
H  4.4908870000  0.1849530000  0.3813160000
H  3.4926260000  -1.1816610000  0.9255500000
H  3.2181420000  0.4291720000  1.6031690000
H  3.8862520000  1.9131890000  -1.4114570000
H  2.6346400000  2.6278800000  -0.3690510000
H  2.2402860000  2.2113680000  -2.0432410000