13
charge=0, multiplicity=1, basis=def2-QZVPP, AUX_BASIS_CORR=rimp2-def2-QZVPPD, SCF_ALGORITHM=GDM, xc_grid=000099000590, mem_total=3750, num_basis=511, num_pairs=122702, num_threads=1
P  0.0000140000  -0.0000220000  -0.6080330000
C  1.4961420000  -0.6448590000  0.2815100000
H  1.3819910000  -0.5957560000  1.3715210000
H  2.3744500000  -0.0598960000  -0.0100820000
H  1.6742840000  -1.6849410000  -0.0102150000
C  -0.1895960000  1.6180790000  0.2814830000
H  -0.1750350000  1.4947730000  1.3715190000
H  -1.1352860000  2.0863410000  -0.0100980000
H  0.6221760000  2.2922530000  -0.0102850000
C  -1.3065770000  -0.9732250000  0.2814880000
H  -1.2067430000  -0.8990980000  1.3714980000
H  -1.2395620000  -2.0263080000  -0.0102730000
H  -2.2963010000  -0.6070130000  -0.0099760000