6
charge=0, multiplicity=1, basis=def2-QZVPP, AUX_BASIS_CORR=rimp2-def2-QZVPPD, SCF_ALGORITHM=GDM, xc_grid=000099000590, mem_total=3750, num_basis=261, num_pairs=34106, num_threads=1
N  1.4345940000  0.0835130000  -0.0532270000
C  0.2783450000  0.0162060000  -0.0103250000
C  -1.1765770000  -0.0684940000  0.0436520000
H  -1.5564980000  -0.5725120000  -0.8498240000
H  -1.6092310000  0.9349290000  0.0948900000
H  -1.4870350000  -0.6332830000  0.9275650000