34
charge=0, multiplicity=1, basis=def2-QZVPP, AUX_BASIS_CORR=rimp2-def2-QZVPPD, SCF_ALGORITHM=GDM, xc_grid=000099000590, mem_total=60000, num_basis=1535, num_pairs=800671, num_threads=16
C  -1.0392900000  -2.6394320000  0.1780330000
C  -2.1780170000  -3.3056350000  -0.2587240000
C  -3.2963910000  -2.5508270000  -0.6055400000
C  -3.2310940000  -1.1668110000  -0.5033820000
H  -0.1402420000  -3.1781870000  0.4572290000
H  -2.1807400000  -4.3882970000  -0.3242530000
H  -4.2063880000  -3.0314720000  -0.9508460000
H  -4.0925750000  -0.5638800000  -0.7651530000
N  -0.9709200000  -1.3063810000  0.2726800000
C  -2.0501990000  -0.5597030000  -0.0622170000
C  -1.8966270000  0.9033470000  0.0537270000
N  -0.7158990000  1.3443890000  0.5474760000
C  -0.4932080000  2.6605160000  0.6501010000
C  -2.6571720000  3.1725800000  -0.2296030000
C  -1.4353300000  3.6110460000  0.2764690000
H  0.4814310000  2.9443200000  1.0317890000
H  -1.2072320000  4.6669620000  0.3734320000
C  -2.8882090000  1.8072100000  -0.3425380000
H  -3.8263940000  1.4491840000  -0.7496720000
H  -3.4167040000  3.8829380000  -0.5407550000
Pd  0.7969660000  -0.1836180000  0.9202240000
C  2.2960060000  1.0387420000  1.5940930000
H  1.8295510000  1.7768660000  2.2550210000
H  2.7342630000  1.5066560000  0.7109420000
H  3.0502020000  0.4801420000  2.1498250000
C  2.1625410000  -1.6906950000  1.1595360000
H  3.0865470000  -1.3990470000  0.6606010000
H  1.7441490000  -2.5680370000  0.6568620000
H  2.3347710000  -1.8962940000  2.2182920000
I  1.4516030000  0.0934770000  -1.7720450000
C  0.2840110000  -0.4444860000  2.9136510000
H  -0.1236610000  -1.4537960000  3.0162650000
H  -0.4764810000  0.3041110000  3.1537370000
H  1.1597210000  -0.3211720000  3.5519930000