51
charge=0, multiplicity=1, basis=def2-QZVPP, mem_total=120000, AUX_BASIS_CORR=rimp2-def2-QZVPPD, SCF_ALGORITHM=GDM, xc_grid=000099000590, num_basis=2140, num_pairs=1455953, num_threads=32
C  1.9622380000  1.2289760000  0.4987630000
C  1.5991170000  0.2858830000  1.5411830000
C  2.1909960000  -0.9264620000  -0.3687780000
C  2.3005500000  0.4931310000  -0.6717890000
C  2.0812480000  2.7139460000  0.6649760000
H  1.4347280000  3.0800450000  1.4663760000
H  1.8210150000  3.2450650000  -0.2547030000
H  3.1122870000  2.9867840000  0.9276470000
C  2.7413780000  1.0516080000  -1.9882660000
H  2.5359900000  2.1234480000  -2.0518860000
H  2.2130450000  0.5587890000  -2.8099470000
H  3.8205150000  0.9029930000  -2.1285250000
C  2.5272410000  -2.0353470000  -1.3172210000
H  3.6138730000  -2.1343200000  -1.4468490000
H  2.0803440000  -1.8468870000  -2.2984590000
H  2.1448350000  -2.9933430000  -0.9532570000
C  1.7165740000  -2.3156300000  1.7880540000
H  2.7119350000  -2.5772820000  2.1712990000
H  1.3687880000  -3.1522840000  1.1755890000
H  1.0500880000  -2.2174180000  2.6485940000
C  1.3405130000  0.6190380000  2.9798450000
H  2.2760590000  0.6473860000  3.5570740000
H  0.6837140000  -0.1216960000  3.4452560000
H  0.8615890000  1.5968800000  3.0800550000
Ru  0.2072490000  -0.0055450000  -0.1192270000
Cl  -0.4295440000  -0.2459730000  -2.4808000000
P  -1.4568910000  1.5282160000  0.0685800000
C  -1.6507600000  2.7378170000  -1.3048220000
H  -1.7031790000  2.1793670000  -2.2426010000
H  -0.7632540000  3.3773180000  -1.3383380000
H  -2.5428010000  3.3608960000  -1.1750520000
C  -1.5490650000  2.6516560000  1.5281900000
H  -2.4723790000  3.2415950000  1.5065770000
H  -0.6973230000  3.3365640000  1.5277170000
H  -1.5204960000  2.0591360000  2.4466870000
C  -3.1446800000  0.7202880000  0.1615980000
H  -3.4327560000  0.7097220000  1.2198070000
H  -3.8872480000  1.3217200000  -0.3741890000
C  1.7876360000  -1.0420260000  1.0013720000
P  -1.4844140000  -1.4699660000  0.2164630000
H  -2.3824090000  -3.6250790000  -0.5685420000
H  -0.6249180000  -3.6890330000  -0.2709650000
H  -1.2363400000  -2.8638670000  -1.7231310000
C  -3.0655900000  -0.7105300000  -0.3806790000
C  -1.4391820000  -3.0768840000  -0.6704200000
C  -1.9312610000  -2.0004470000  1.9264640000
H  -2.9882640000  -0.7017560000  -1.4725210000
H  -3.9350170000  -1.3111100000  -0.0884290000
H  -1.1043610000  -2.5637800000  2.3660100000
H  -2.8276190000  -2.6309130000  1.9254210000
H  -2.1092920000  -1.1172800000  2.5464030000