25
charge=0, multiplicity=1, basis=def2-QZVPP, AUX_BASIS_CORR=rimp2-def2-QZVPPD, SCF_ALGORITHM=GDM, xc_grid=000099000590, mem_total=30000, num_basis=1206, num_pairs=429439, num_threads=8
Mo  0.0001060000  -0.0000700000  -0.4713770000
C  0.5143980000  -1.5149150000  -1.6460500000
C  1.0550790000  1.2023500000  -1.6462490000
C  -1.5684740000  0.3119830000  -1.6466600000
O  -2.4845200000  0.4939460000  -2.3467320000
O  0.8149700000  -2.3994530000  -2.3457650000
O  1.6709570000  1.9046920000  -2.3460790000
N  -1.1335550000  -1.2910080000  0.8117920000
N  -0.5515760000  1.6271660000  0.8115840000
N  1.6846840000  -0.3359050000  0.8122310000
C  2.6237150000  -0.5232920000  1.4709170000
C  -0.8589440000  2.5343030000  1.4699050000
C  -1.7656520000  -2.0104910000  1.4702440000
C  -2.5799030000  -2.9367330000  2.2383710000
H  -3.6312370000  -2.6311690000  2.2073890000
H  -2.2526450000  -2.9625580000  3.2829070000
H  -2.4966170000  -3.9454510000  1.8195770000
C  -1.2544010000  3.7025550000  2.2378570000
H  -0.4646900000  4.4608320000  2.2061600000
H  -1.4395920000  3.4322730000  3.2825940000
H  -2.1701830000  4.1339610000  1.8194420000
C  3.8328750000  -0.7649560000  2.2393440000
H  4.0941050000  -1.8281810000  2.2086530000
H  3.6913460000  -0.4684210000  3.2837850000
H  4.6647930000  -0.1884190000  1.8205910000