37
charge=0, multiplicity=1, basis=def2-QZVPP, AUX_BASIS_CORR=rimp2-def2-QZVPPD, SCF_ALGORITHM=GDM, xc_grid=000099000590, mem_total=60000, num_basis=1625, num_pairs=863643, num_threads=16
Ir  0.0024770000  -0.0152860000  0.0834300000
P  -2.3481770000  -0.2265800000  -0.0581320000
C  -2.8727020000  -1.5503270000  -1.1888030000
C  -3.1606950000  -0.6011990000  1.5334510000
H  -2.7689830000  -1.5458560000  1.9203850000
H  -3.0350530000  2.0921690000  0.0381610000
H  -4.2448530000  -0.6822410000  1.4067760000
H  -2.7863620000  1.5293950000  -1.6371720000
H  -3.9656600000  -1.6021020000  -1.2293250000
H  -2.9347260000  0.1951160000  2.2482500000
C  -3.2026840000  1.2687790000  -0.6608610000
H  -2.4618520000  -1.3351190000  -2.1779020000
H  -4.2771340000  1.0823130000  -0.7556900000
H  -2.4489900000  -2.4949630000  -0.8414030000
P  2.3717330000  -0.0330510000  -0.0480790000
C  3.1181470000  -1.1465770000  1.1900970000
C  2.9888640000  -0.6465130000  -1.6454910000
H  2.9930370000  2.2525300000  -0.5867190000
H  4.3263670000  1.3979450000  0.2286680000
H  2.9279250000  1.9913870000  1.1680460000
C  3.2429960000  1.5552880000  0.2160580000
H  4.0811310000  -0.7191050000  -1.6231650000
H  2.5394120000  -1.6278740000  -1.8169090000
H  4.1980170000  -1.2269390000  1.0307100000
H  2.6453850000  -2.1266250000  1.0843250000
H  2.6659240000  0.0270130000  -2.4414950000
H  2.9282940000  -0.7624710000  2.1961810000
C  0.0418750000  -0.3769240000  1.9010080000
O  0.0609160000  -0.6245380000  3.0282250000
Cl  0.2748910000  -2.5174330000  -0.3436370000
C  -0.1905940000  2.0039780000  0.4941230000
O  -0.5294960000  2.3992530000  1.5991700000
Cl  -0.1361780000  0.3646380000  -2.2914470000
C  0.0629800000  3.0284880000  -0.6075410000
H  0.2103820000  4.0102450000  -0.1492200000
H  -0.8155460000  3.0563860000  -1.2605850000
H  0.9005990000  2.7501500000  -1.2478190000