23
charge=0, multiplicity=1, basis=def2-QZVPP, AUX_BASIS_CORR=rimp2-def2-QZVPPD, SCF_ALGORITHM=GDM, xc_grid=000099000590, mem_total=30000, num_basis=1115, num_pairs=523607, num_threads=8
Mo  0.0011560000  0.8127450000  0.0002070000
C  1.1724970000  1.7728260000  -1.6944850000
C  0.6397260000  0.5793250000  -2.2738010000
C  -0.7712470000  0.6498460000  -2.2543020000
C  -1.1647110000  1.8797530000  -1.6536380000
C  0.0464690000  2.5976710000  -1.3566190000
H  2.2180290000  2.0306020000  -1.6184160000
H  1.2172640000  -0.2604860000  -2.6252910000
H  -1.4390140000  -0.1292180000  -2.5853950000
H  -2.1783630000  2.2304250000  -1.5289950000
H  0.1032290000  3.6162820000  -1.0102070000
C  -0.0464680000  2.5954140000  1.3598190000
C  -1.1707030000  1.7677260000  1.6964580000
C  0.7756620000  0.6480050000  2.2542590000
C  1.1662510000  1.8795090000  1.6555320000
H  -2.2168200000  2.0231730000  1.6209200000
H  -1.2105680000  -0.2676390000  2.6237070000
C  -0.6351310000  0.5741680000  2.2736010000
H  2.1791060000  2.2324690000  1.5308970000
H  -0.1053620000  3.6143840000  1.0149120000
H  1.4452780000  -0.1302080000  2.5835980000
I  1.8979070000  -1.3108220000  -0.0126060000
I  -1.9004610000  -1.3073010000  0.0115610000