17
charge=0, multiplicity=1, basis=def2-QZVPP, AUX_BASIS_CORR=rimp2-def2-QZVPPD, SCF_ALGORITHM=GDM, xc_grid=000099000590, mem_total=15000, num_basis=897, num_pairs=324784, num_threads=4
Cr  -0.0000150000  0.0000770000  -0.0309360000
O  -3.0480100000  0.0000590000  0.1762840000
C  -1.8993900000  0.0000550000  0.0769720000
C  0.0016180000  -0.0019810000  1.8384990000
O  0.0028000000  -0.0034090000  2.9935220000
C  1.8995100000  0.0000270000  0.0742710000
O  3.0482670000  -0.0000190000  0.1720290000
C  -0.0001960000  1.9048450000  -0.0516110000
O  -0.0003960000  3.0578250000  -0.0411630000
C  -0.0002440000  -1.9046160000  -0.0551860000
O  -0.0005060000  -3.0576160000  -0.0467600000
C  -0.6926010000  0.0021270000  -2.2463200000
H  -1.2441060000  -0.9177710000  -2.4061950000
H  -1.2438620000  0.9224230000  -2.4048340000
C  0.6895700000  0.0019860000  -2.2472300000
H  1.2408120000  0.9221650000  -2.4064460000
H  1.2406750000  -0.9180280000  -2.4077390000