16
charge=0, multiplicity=1, basis=def2-QZVPPD, AUX_BASIS_CORR=rimp2-def2-QZVPPD, SCF_ALGORITHM=GDM, xc_grid=000099000590, mem_total=15000, num_basis=1032, num_pairs=442732, num_threads=4
Mg  0.0000000000  0.0000000000  0.0000000000
O  0.0000000000  0.0000000000  1.9694500000
Mg  1.9694500000  0.0000000000  1.9694500000
O  1.9694500000  0.0000000000  0.0000000000
Mg  1.9694500000  1.9694500000  0.0000000000
O  1.9694500000  1.9694500000  1.9694500000
Mg  0.0000000000  1.9694500000  1.9694500000
O  0.0000000000  1.9694500000  0.0000000000
Mg  0.0000000000  3.9389010000  0.0000000000
O  0.0000000000  3.9389010000  1.9694500000
Mg  1.9694500000  3.9389010000  1.9694500000
O  1.9694500000  3.9389010000  0.0000000000
Mg  1.9694500000  5.9083510000  0.0000000000
O  1.9694500000  5.9083510000  1.9694500000
Mg  0.0000000000  5.9083510000  1.9694500000
O  0.0000000000  5.9083510000  0.0000000000