8
charge=0, multiplicity=1, basis=def2-QZVPPD, AUX_BASIS_CORR=rimp2-def2-QZVPPD, SCF_ALGORITHM=GDM, xc_grid=000099000590, mem_total=3750, num_basis=568, num_pairs=149756, num_threads=1
Mg  0.0000000000  0.0000000000  2.0894574673
S  1.7060348781  -0.9849796961  0.6964858224
Mg  0.0000000000  -1.9699593922  -0.6964858224
S  -1.7060348781  -0.9849796961  0.6964858224
Mg  -1.7060348781  0.9849796961  -0.6964858224
S  0.0000000000  0.0000000000  -2.0894574673
Mg  1.7060348781  0.9849796961  -0.6964858224
S  0.0000000000  1.9699593922  0.6964858224