12
charge=0, multiplicity=1, basis=def2-QZVPPD, AUX_BASIS_CORR=rimp2-def2-QZVPPD, SCF_ALGORITHM=GDM, xc_grid=000099000590, mem_total=7500, num_basis=816, num_pairs=268972, num_threads=2
K  0.0000000000  0.0000000000  0.0000000000
F  0.0000000000  0.0000000000  2.5169110000
K  2.5169110000  0.0000000000  2.5169110000
F  2.5169110000  0.0000000000  0.0000000000
K  2.5169110000  2.5169110000  0.0000000000
F  2.5169110000  2.5169110000  2.5169110000
K  0.0000000000  2.5169110000  2.5169110000
F  0.0000000000  2.5169110000  0.0000000000
K  0.0000000000  5.0338230000  0.0000000000
F  0.0000000000  5.0338230000  2.5169110000
K  2.5169110000  5.0338230000  2.5169110000
F  2.5169110000  5.0338230000  0.0000000000