8
charge=0, multiplicity=1, basis=def2-QZVPPD, AUX_BASIS_CORR=rimp2-def2-QZVPPD, SCF_ALGORITHM=GDM, xc_grid=000099000590, mem_total=3750, num_basis=544, num_pairs=139916, num_threads=1
Ca  0.0000000000  0.0000000000  1.8761458383
O  0.8844236298  -1.5318666623  0.6253819461
Ca  -0.8844236298  -1.5318666623  -0.6253819461
O  -1.7688472597  0.0000000000  0.6253819461
Ca  -0.8844236298  1.5318666623  -0.6253819461
O  0.0000000000  0.0000000000  -1.8761458383
Ca  1.7688472597  0.0000000000  -0.6253819461
O  0.8844236298  1.5318666623  0.6253819461