12
charge=0, multiplicity=1, basis=def2-QZVPPD, AUX_BASIS_CORR=rimp2-def2-QZVPPD, SCF_ALGORITHM=GDM, xc_grid=000099000590, mem_total=15000, num_basis=852, num_pairs=314563, num_threads=4
Mg  2.4330040000  0.0000000000  1.7203940000
S  2.4330040000  1.7203940000  0.0000000000
Mg  2.4330040000  0.0000000000  -1.7203940000
S  2.4330040000  -1.7203940000  0.0000000000
Mg  0.0000000000  -1.7203940000  0.0000000000
S  0.0000000000  0.0000000000  -1.7203940000
Mg  0.0000000000  1.7203940000  0.0000000000
S  0.0000000000  0.0000000000  1.7203940000
Mg  -2.4330040000  0.0000000000  1.7203940000
S  -2.4330040000  1.7203940000  0.0000000000
Mg  -2.4330040000  0.0000000000  -1.7203940000
S  -2.4330040000  -1.7203940000  0.0000000000