8
charge=0, multiplicity=1, basis=def2-QZVPPD, AUX_BASIS_CORR=rimp2-def2-QZVPPD, SCF_ALGORITHM=GDM, xc_grid=000099000590, mem_total=3750, num_basis=596, num_pairs=164314, num_threads=1
Ca  0.0000000000  0.0000000000  2.2792125168
S  1.0744310843  -1.8609692272  0.7597375056
Ca  -1.0744310843  -1.8609692272  -0.7597375056
S  -2.1488621685  0.0000000000  0.7597375056
Ca  -1.0744310843  1.8609692272  -0.7597375056
S  0.0000000000  0.0000000000  -2.2792125168
Ca  2.1488621685  0.0000000000  -0.7597375056
S  1.0744310843  1.8609692272  0.7597375056