12
charge=0, multiplicity=1, basis=def2-QZVPPD, AUX_BASIS_CORR=rimp2-def2-QZVPPD, SCF_ALGORITHM=GDM, xc_grid=000099000590, mem_total=15000, num_basis=894, num_pairs=341561, num_threads=4
Ca  -2.6597390000  1.8807190000  0.0000000000
S  -2.6597390000  0.0000000000  1.8807190000
Ca  -2.6597390000  -1.8807190000  0.0000000000
S  -2.6597390000  0.0000000000  -1.8807190000
Ca  0.0000000000  0.0000000000  -1.8807190000
S  0.0000000000  -1.8807190000  0.0000000000
Ca  0.0000000000  0.0000000000  1.8807190000
S  0.0000000000  1.8807190000  0.0000000000
Ca  2.6597390000  1.8807190000  0.0000000000
S  2.6597390000  0.0000000000  1.8807190000
Ca  2.6597390000  -1.8807190000  0.0000000000
S  2.6597390000  0.0000000000  -1.8807190000