12
charge=0, multiplicity=1, basis=def2-QZVPPD, AUX_BASIS_CORR=rimp2-def2-QZVPPD, SCF_ALGORITHM=GDM, xc_grid=000099000590, mem_total=15000, num_basis=816, num_pairs=291558, num_threads=4
Ca  -2.2071950000  1.5607230000  0.0000000000
O  -2.2071950000  0.0000000000  1.5607230000
Ca  -2.2071950000  -1.5607230000  0.0000000000
O  -2.2071950000  0.0000000000  -1.5607230000
Ca  0.0000000000  0.0000000000  -1.5607230000
O  0.0000000000  -1.5607230000  0.0000000000
Ca  0.0000000000  0.0000000000  1.5607230000
O  0.0000000000  1.5607230000  0.0000000000
Ca  2.2071950000  1.5607230000  0.0000000000
O  2.2071950000  0.0000000000  1.5607230000
Ca  2.2071950000  -1.5607230000  0.0000000000
O  2.2071950000  0.0000000000  -1.5607230000