4
charge=0, multiplicity=1, basis=def2-QZVPPD, AUX_BASIS_CORR=rimp2-def2-QZVPPD, SCF_ALGORITHM=GDM, xc_grid=000099000590, mem_total=3750, num_basis=258, num_pairs=33032, num_threads=1
Mg  0.0000000000  0.0000000000  -1.3060572146
O  0.0000000000  -1.3060572146  0.0000000000
Mg  0.0000000000  0.0000000000  1.3060572146
O  0.0000000000  1.3060572146  0.0000000000