16
charge=0, multiplicity=1, basis=def2-QZVPPD, AUX_BASIS_CORR=rimp2-def2-QZVPPD, SCF_ALGORITHM=GDM, xc_grid=000099000590, mem_total=30000, num_basis=1088, num_pairs=484296, num_threads=8
Ca  0.0000000000  -1.5725000000  3.3357760000
O  -1.5725000000  0.0000000000  3.3357760000
Ca  0.0000000000  1.5725000000  3.3357760000
O  1.5725000000  0.0000000000  3.3357760000
Ca  1.5725000000  0.0000000000  1.1119250000
O  0.0000000000  1.5725000000  1.1119250000
Ca  -1.5725000000  0.0000000000  1.1119250000
O  0.0000000000  -1.5725000000  1.1119250000
Ca  0.0000000000  -1.5725000000  -1.1119250000
O  -1.5725000000  0.0000000000  -1.1119250000
Ca  0.0000000000  1.5725000000  -1.1119250000
O  1.5725000000  0.0000000000  -1.1119250000
Ca  1.5725000000  0.0000000000  -3.3357760000
O  0.0000000000  1.5725000000  -3.3357760000
Ca  -1.5725000000  0.0000000000  -3.3357760000
O  0.0000000000  -1.5725000000  -3.3357760000