16
charge=0, multiplicity=1, basis=def2-QZVPPD, AUX_BASIS_CORR=rimp2-def2-QZVPPD, SCF_ALGORITHM=GDM, xc_grid=000099000590, mem_total=30000, num_basis=1136, num_pairs=513452, num_threads=8
Mg  1.7271940000  0.0000000000  3.6639320000
S  0.0000000000  -1.7271940000  3.6639320000
Mg  -1.7271940000  0.0000000000  3.6639320000
S  0.0000000000  1.7271940000  3.6639320000
Mg  0.0000000000  1.7271940000  1.2213110000
S  -1.7271940000  0.0000000000  1.2213110000
Mg  0.0000000000  -1.7271940000  1.2213110000
S  1.7271940000  0.0000000000  1.2213110000
Mg  1.7271940000  0.0000000000  -1.2213110000
S  0.0000000000  -1.7271940000  -1.2213110000
Mg  -1.7271940000  0.0000000000  -1.2213110000
S  0.0000000000  1.7271940000  -1.2213110000
Mg  0.0000000000  1.7271940000  -3.6639320000
S  -1.7271940000  0.0000000000  -3.6639320000
Mg  0.0000000000  -1.7271940000  -3.6639320000
S  1.7271940000  0.0000000000  -3.6639320000