8
charge=0, multiplicity=1, basis=def2-QZVPPD, AUX_BASIS_CORR=rimp2-def2-QZVPPD, SCF_ALGORITHM=GDM, xc_grid=000099000590, mem_total=3750, num_basis=548, num_pairs=134506, num_threads=1
Na  0.0000000000  0.0000000000  2.2861849140
Cl  1.0777179038  -1.8666621656  0.7620616380
Na  -1.0777179038  -1.8666621656  -0.7620616380
Cl  -2.1554358076  0.0000000000  0.7620616380
Na  -1.0777179038  1.8666621656  -0.7620616380
Cl  0.0000000000  0.0000000000  -2.2861849140
Na  2.1554358076  0.0000000000  -0.7620616380
Cl  1.0777179038  1.8666621656  0.7620616380