8
charge=0, multiplicity=1, basis=def2-QZVPPD, AUX_BASIS_CORR=rimp2-def2-QZVPPD, SCF_ALGORITHM=GDM, xc_grid=000099000590, mem_total=3750, num_basis=496, num_pairs=110440, num_threads=1
Na  0.0000000000  0.0000000000  1.8670062045
F  0.8801151651  -1.5244041825  0.6223354015
Na  -0.8801151651  -1.5244041825  -0.6223354015
F  -1.7602303303  0.0000000000  0.6223354015
Na  -0.8801151651  1.5244041825  -0.6223354015
F  0.0000000000  0.0000000000  -1.8670062045
Na  1.7602303303  0.0000000000  -0.6223354015
F  0.8801151651  1.5244041825  0.6223354015