4
charge=0, multiplicity=1, basis=def2-QZVPPD, AUX_BASIS_CORR=rimp2-def2-QZVPPD, SCF_ALGORITHM=GDM, xc_grid=000099000590, mem_total=3750, num_basis=284, num_pairs=39218, num_threads=1
Mg  0.0000000000  1.6375523192  0.0000000000
S  0.0000000000  0.0000000000  -1.6375523192
Mg  0.0000000000  -1.6375523192  0.0000000000
S  0.0000000000  0.0000000000  1.6375523192