12
charge=0, multiplicity=1, basis=def2-QZVPPD, AUX_BASIS_CORR=rimp2-def2-QZVPPD, SCF_ALGORITHM=GDM, xc_grid=000099000590, mem_total=7500, num_basis=744, num_pairs=229736, num_threads=2
Na  -2.1891150000  1.5479380000  0.0000000000
F  -2.1891150000  0.0000000000  1.5479380000
Na  -2.1891150000  -1.5479380000  0.0000000000
F  -2.1891150000  0.0000000000  -1.5479380000
Na  0.0000000000  0.0000000000  -1.5479380000
F  0.0000000000  -1.5479380000  0.0000000000
Na  0.0000000000  0.0000000000  1.5479380000
F  0.0000000000  1.5479380000  0.0000000000
Na  2.1891150000  1.5479380000  0.0000000000
F  2.1891150000  0.0000000000  1.5479380000
Na  2.1891150000  -1.5479380000  0.0000000000
F  2.1891150000  0.0000000000  -1.5479380000