6
charge=0, multiplicity=1, basis=def2-QZVPPD, AUX_BASIS_CORR=rimp2-def2-QZVPPD, SCF_ALGORITHM=GDM, xc_grid=000099000590, mem_total=3750, num_basis=258, num_pairs=33705, num_threads=1
N  0.0000000000  0.0000000000  0.7020720308
B  0.0000000000  0.0000000000  -0.6828416185
H  -0.8405931524  0.0000000000  1.2529889413
H  0.8405931524  0.0000000000  1.2529889413
H  -1.0463448749  0.0000000000  -1.2626041475
H  1.0463448749  0.0000000000  -1.2626041475