8
charge=0, multiplicity=1, basis=def2-QZVPPD, AUX_BASIS_CORR=rimp2-def2-QZVPPD, SCF_ALGORITHM=GDM, xc_grid=000099000590, mem_total=3750, num_basis=337, num_pairs=56051, num_threads=1
B  0.0000000000  0.0000000000  -1.1203819520
P  0.0000000000  0.0000000000  0.8383085524
H  -0.6235956481  -1.0800993458  1.5013904169
H  -0.6235956481  1.0800993458  1.5013904169
H  1.2471912961  0.0000000000  1.5013904169
H  0.5865485215  1.0159318404  -1.4073659504
H  -1.1730970431  0.0000000000  -1.4073659504
H  0.5865485215  -1.0159318404  -1.4073659504