18
charge=0, multiplicity=1, basis=def2-QZVPPD, AUX_BASIS_CORR=rimp2-def2-QZVPPD, SCF_ALGORITHM=GDM, xc_grid=000099000590, mem_total=7500, num_basis=774, num_pairs=282321, num_threads=2
B  -0.7818899859  1.3542731814  -0.2060826972
N  -1.4763448576  0.0000000000  0.2285091998
B  -0.7818899859  -1.3542731814  -0.2060826972
N  0.7381724288  -1.2785521514  0.2285091998
B  1.5637799717  0.0000000000  -0.2060826972
N  0.7381724288  1.2785521514  0.2285091998
H  -1.3177704386  2.2824453524  0.3664751971
H  -0.8321087807  1.4412546857  -1.4079807530
H  -1.6710400845  0.0000000000  1.2254106743
H  -2.3928476411  0.0000000000  -0.2063316209
H  -0.8321087807  -1.4412546857  -1.4079807530
H  -1.3177704386  -2.2824453524  0.3664751971
H  0.8355200423  -1.4471631640  1.2254106743
H  1.1964238206  -2.0722668446  -0.2063316209
H  1.6642175615  0.0000000000  -1.4079807530
H  2.6355408772  0.0000000000  0.3664751971
H  0.8355200423  1.4471631640  1.2254106743
H  1.1964238206  2.0722668446  -0.2063316209