13
charge=0, multiplicity=1, basis=def2-QZVPPD, AUX_BASIS_CORR=rimp2-def2-QZVPPD, SCF_ALGORITHM=GDM, xc_grid=000099000590, mem_total=3750, num_basis=562, num_pairs=150279, num_threads=1
P  0.0000000000  0.0000000000  -0.9470240678
C  0.8125267428  -1.4073376010  -0.0515431715
C  0.8125267428  1.4073376010  -0.0515431715
C  -1.6250534856  0.0000000000  -0.0515431715
H  -2.2018048535  0.8834827005  -0.3333330466
H  -2.2018048535  -0.8834827005  -0.3333330466
H  -1.4833847610  0.0000000000  1.0338839539
H  1.8660208892  -1.4650775870  -0.3333330466
H  0.7416923805  -1.2846488866  1.0338839539
H  0.3357839643  -2.3485602875  -0.3333330466
H  0.3357839643  2.3485602875  -0.3333330466
H  1.8660208892  1.4650775870  -0.3333330466
H  0.7416923805  1.2846488866  1.0338839539