17
charge=0, multiplicity=1, basis=def2-QZVPPD, mem_total=15000, AUX_BASIS_CORR=rimp2-def2-QZVPPD, SCF_ALGORITHM=GDM, xc_grid=000099000590, num_basis=823, num_pairs=295303, num_threads=4
B  0.0000000000  0.0000000000  2.0897535939
P  0.0000000000  0.0000000000  0.0067365751
C  0.8477646337  -1.4683714185  -0.6895148348
C  0.8477646337  1.4683714185  -0.6895148348
C  -1.6955292675  0.0000000000  -0.6895148348
F  -0.6677953775  1.1566555229  2.4469861498
F  1.3355907551  0.0000000000  2.4469861498
F  -0.6677953775  -1.1566555229  2.4469861498
H  -2.2214623092  -0.8867861870  -0.3351143973
H  -2.2214623092  0.8867861870  -0.3351143973
H  -1.6788728040  0.0000000000  -1.7860725767
H  0.3427517890  2.3672358868  -0.3351143973
H  1.8787105203  1.4804496999  -0.3351143973
H  0.8394364020  1.4539464980  -1.7860725767
H  0.8394364020  -1.4539464980  -1.7860725767
H  1.8787105203  -1.4804496999  -0.3351143973
H  0.3427517890  -2.3672358868  -0.3351143973