4
charge=0, multiplicity=1, basis=def2-QZVPPD, AUX_BASIS_CORR=rimp2-def2-QZVPPD, SCF_ALGORITHM=GDM, xc_grid=000099000590, mem_total=3750, num_basis=175, num_pairs=15705, num_threads=1
P  0.0000000000  0.0000000000  -0.5757695398
H  0.5966929591  -1.0335025217  0.1919231799
H  0.5966929591  1.0335025217  0.1919231799
H  -1.1933859182  0.0000000000  0.1919231799