12
charge=0, multiplicity=1, basis=def2-QZVPPD, AUX_BASIS_CORR=rimp2-def2-QZVPPD, SCF_ALGORITHM=GDM, xc_grid=000099000590, mem_total=3750, num_basis=576, num_pairs=158241, num_threads=1
N  0.7019497587  1.2158126465  0.0000000000
B  1.4448605436  0.0000000000  0.0000000000
N  0.7019497587  -1.2158126465  0.0000000000
B  -0.7224302718  -1.2512859357  0.0000000000
N  -1.4038995174  0.0000000000  0.0000000000
B  -0.7224302718  1.2512859357  0.0000000000
H  1.2045220466  2.0862933836  0.0000000000
H  2.6413183258  0.0000000000  0.0000000000
H  1.2045220466  -2.0862933836  0.0000000000
H  -1.3206591629  -2.2874487696  0.0000000000
H  -2.4090440932  0.0000000000  0.0000000000
H  -1.3206591629  2.2874487696  0.0000000000