5
charge=0, multiplicity=3, basis=def2-QZVPPD, AUX_BASIS_CORR=rimp2-def2-QZVPPD, SCF_ALGORITHM=GDM, xc_grid=000099000590, mem_total=3750, num_basis=264, num_pairs=30084, num_threads=1
O  -2.1100510540  -0.1768885340  0.0000000000
H  -1.4196816710  0.4383034400  0.0000000000
H  -1.3836728310  -0.8692297760  0.0000000000
O  1.9556760360  0.7449008150  0.0000000000
O  2.1058943610  -0.3824908720  0.0000000000