5
charge=0, multiplicity=3, basis=def2-QZVPPD, AUX_BASIS_CORR=rimp2-def2-QZVPPD, SCF_ALGORITHM=GDM, xc_grid=000099000590, mem_total=3750, num_basis=327, num_pairs=48213, num_threads=1
C  -1.6923411040  0.3410755820  0.0000000000
O  -1.6923411040  1.5010755820  0.0000000000
O  -1.6923411040  -0.8189244180  0.0000000000
O  1.4300474590  0.0826277980  0.0000000000
O  1.9546347480  -0.7647789630  0.0000000000