3
charge=0, multiplicity=3, basis=def2-QZVPPD, AUX_BASIS_CORR=rimp2-def2-QZVPPD, SCF_ALGORITHM=GDM, xc_grid=000099000590, mem_total=3750, num_basis=175, num_pairs=14180, num_threads=1
N  -0.0559726380  0.0000000000  1.9129555900
H  0.8549442960  0.0000000000  1.4169574240
Ar  -0.0051776540  0.0000000000  -1.8796589940