7
charge=0, multiplicity=2, basis=def2-QZVPPD, AUX_BASIS_CORR=rimp2-def2-QZVPPD, SCF_ALGORITHM=GDM, xc_grid=000099000590, mem_total=3750, num_basis=324, num_pairs=46872, num_threads=1
C  -0.3341879970  1.7159174210  0.0000000000
H  0.2423070030  1.8071584210  0.9328140000
H  0.2423070030  1.8071584210  -0.9328140000
O  -1.5276359970  1.5320224210  0.0000000000
N  0.9606454610  -1.5503150290  0.0000000000
H  -0.0223735390  -1.8394630290  0.0000000000
H  1.4789964610  -2.4333540290  0.0000000000