4
charge=0, multiplicity=2, basis=def2-QZVPPD, AUX_BASIS_CORR=rimp2-def2-QZVPPD, SCF_ALGORITHM=GDM, xc_grid=000099000590, mem_total=3750, num_basis=190, num_pairs=17404, num_threads=1
Na  0.0000113470  0.0000000000  -1.4657736250
O  -0.0000633470  0.0000000000  1.4030103440
H  0.0004013600  0.7581379250  1.9639058800
H  0.0004013600  -0.7581379250  1.9639058800