4
charge=1, multiplicity=2, basis=def2-QZVPPD, AUX_BASIS_CORR=rimp2-def2-QZVPPD, SCF_ALGORITHM=GDM, xc_grid=000099000590, mem_total=3750, num_basis=228, num_pairs=25044, num_threads=1
C  0.0000000000  -0.4614518100  0.8390851250
O  0.0000000000  0.1712216750  1.7616526350
F  0.0000000000  0.1349559490  -1.3335843350
H  0.0000000000  -0.5575256710  -1.9781200790