8
charge=0, multiplicity=2, basis=def2-QZVPPD, AUX_BASIS_CORR=rimp2-def2-QZVPPD, SCF_ALGORITHM=GDM, xc_grid=000099000590, mem_total=3750, num_basis=420, num_pairs=83221, num_threads=1
C  -1.2211046260  -0.6945085360  -0.3231560220
C  -1.6840335760  0.4657311040  0.0785338980
H  -1.4805679760  -1.7360963660  -0.2113549420
H  -2.5739071460  0.5306137040  0.7057300080
H  -1.2043051960  1.4004566240  -0.1923333220
C  1.4807470260  0.0927664980  0.0967163760
O  1.2763594060  1.1816479780  -0.2608553540
O  1.6999991060  -0.9918061820  0.4561114460