4
charge=0, multiplicity=3, basis=def2-QZVPPD, AUX_BASIS_CORR=rimp2-def2-QZVPPD, SCF_ALGORITHM=GDM, xc_grid=000099000590, mem_total=3750, num_basis=258, num_pairs=22833, num_threads=1
O  -0.6008500000  0.0000000000  -3.4400000000
O  0.6008500000  0.0000000000  -3.4400000000
N  0.0000000000  -0.5484000000  3.4400000000
N  0.0000000000  0.5484000000  3.4400000000