11
charge=0, multiplicity=2, basis=def2-QZVPPD, AUX_BASIS_CORR=rimp2-def2-QZVPPD, SCF_ALGORITHM=GDM, xc_grid=000099000590, mem_total=3750, num_basis=483, num_pairs=74845, num_threads=1
H  0.9239600000  1.2319600000  -4.4000000000
H  0.9239600000  -1.2319600000  -4.4000000000
H  -0.9239600000  -1.2319600000  -4.4000000000
C  0.0000000000  0.6671800000  -4.4000000000
C  0.0000000000  -0.6671800000  -4.4000000000
H  -0.9583947820  1.2778735390  4.4000000000
H  0.8895252180  1.2778735390  4.4000000000
H  0.8895252180  -1.1860464610  4.4000000000
H  -0.9583947820  -1.1860464610  4.4000000000
C  -0.0344347820  0.7130935390  4.4000000000
C  -0.0344347820  -0.6212664610  4.4000000000