5
charge=0, multiplicity=3, basis=def2-QZVPPD, AUX_BASIS_CORR=rimp2-def2-QZVPPD, SCF_ALGORITHM=GDM, xc_grid=000099000590, mem_total=3750, num_basis=264, num_pairs=26861, num_threads=1
O  -2.6177473530  -0.2221897770  0.0000000000
H  -1.9273779700  0.3930021970  0.0000000000
H  -1.8913691300  -0.9145310190  0.0000000000
O  2.4633723350  0.7902020580  0.0000000000
O  2.6135906600  -0.3371896290  0.0000000000