4
charge=0, multiplicity=2, basis=def2-QZVPPD, AUX_BASIS_CORR=rimp2-def2-QZVPPD, SCF_ALGORITHM=GDM, xc_grid=000099000590, mem_total=3750, num_basis=192, num_pairs=14611, num_threads=1
C  -2.6587500000  -0.5965257450  0.0000000000
N  -2.6587500000  0.5740742550  0.0000000000
H  2.6587500000  -0.0336772350  0.3714000000
H  2.6587500000  -0.0336772350  -0.3714000000