3
charge=0, multiplicity=2, basis=def2-QZVPPD, AUX_BASIS_CORR=rimp2-def2-QZVPPD, SCF_ALGORITHM=GDM, xc_grid=000099000590, mem_total=3750, num_basis=205, num_pairs=16262, num_threads=1
C  -0.4050523320  0.0000000000  3.2717242290
N  0.4497738780  0.0000000000  2.4769739590
Ar  -0.0551510040  0.0000000000  -2.8438633120