7
charge=0, multiplicity=2, basis=def2-QZVPPD, AUX_BASIS_CORR=rimp2-def2-QZVPPD, SCF_ALGORITHM=GDM, xc_grid=000099000590, mem_total=3750, num_basis=324, num_pairs=42219, num_threads=1
C  -0.5670415890  2.1219310080  0.0000000000
H  0.0094534110  2.2131720080  0.9328140000
H  0.0094534110  2.2131720080  -0.9328140000
O  -1.7604895890  1.9380360080  0.0000000000
N  1.1934990540  -1.9563286160  0.0000000000
H  0.2104800540  -2.2454766160  0.0000000000
H  1.7118500540  -2.8393676160  0.0000000000