3
charge=0, multiplicity=1, basis=def2-QZVPPD, AUX_BASIS_CORR=rimp2-def2-QZVPPD, SCF_ALGORITHM=GDM, xc_grid=000099000590, mem_total=3750, num_basis=132, num_pairs=9017, num_threads=1
H  -2.5006782560  0.0664009540  0.0000000000
O  -1.5539980120  -0.0865200050  0.0000000000
H  -1.1689034460  0.7919693900  0.0000000000