5
charge=0, multiplicity=3, basis=def2-QZVPPD, AUX_BASIS_CORR=rimp2-def2-QZVPPD, SCF_ALGORITHM=GDM, xc_grid=000099000590, mem_total=3750, num_basis=264, num_pairs=24157, num_threads=1
H  -4.0860965220  0.0375875050  0.0000000000
O  -3.1394162780  -0.1153334540  0.0000000000
H  -2.7543217120  0.7631559410  0.0000000000
O  3.0474405410  0.6486344000  0.0000000000
O  3.2942325220  -0.5333806030  0.0000000000