5
charge=0, multiplicity=3, basis=def2-QZVPPD, AUX_BASIS_CORR=rimp2-def2-QZVPPD, SCF_ALGORITHM=GDM, xc_grid=000099000590, mem_total=3750, num_basis=264, num_pairs=33292, num_threads=1
H  -2.3421364300  0.0692822990  0.0000000000
O  -1.3954561860  -0.0836386600  0.0000000000
H  -1.0103616190  0.7948507350  0.0000000000
O  1.3034804490  0.6169396060  0.0000000000
O  1.5502724300  -0.5650753970  0.0000000000