8
charge=0, multiplicity=2, basis=def2-QZVPPD, AUX_BASIS_CORR=rimp2-def2-QZVPPD, SCF_ALGORITHM=GDM, xc_grid=000099000590, mem_total=3750, num_basis=420, num_pairs=75746, num_threads=1
C  -1.7164882640  -0.7259528490  -0.3556157690
C  -2.1794172140  0.4342867910  0.0460741510
H  -1.9759516140  -1.7675406790  -0.2438146890
H  -3.0692907840  0.4991693910  0.6732702610
H  -1.6996888340  1.3690123110  -0.2247930690
C  1.9761306640  0.1242108110  0.1291761230
O  1.7717430440  1.2130922910  -0.2283956070
O  2.1953827440  -0.9603618690  0.4885711930