5
charge=0, multiplicity=2, basis=def2-QZVPPD, AUX_BASIS_CORR=rimp2-def2-QZVPPD, SCF_ALGORITHM=GDM, xc_grid=000099000590, mem_total=3750, num_basis=231, num_pairs=19369, num_threads=1
O  0.0000000000  0.0467377710  2.8456315580
H  0.7587110830  -0.2755395260  3.3407773910
H  -0.7587110830  -0.2755395260  3.3407773910
O  0.0000000000  -0.0116227500  -2.9587124030
H  0.0000000000  0.0043609560  -1.9855436550