5
charge=0, multiplicity=3, basis=def2-QZVPPD, AUX_BASIS_CORR=rimp2-def2-QZVPPD, SCF_ALGORITHM=GDM, xc_grid=000099000590, mem_total=3750, num_basis=327, num_pairs=41037, num_threads=1
C  -2.5385116560  0.5116133730  0.0000000000
O  -2.5385116560  1.6716133730  0.0000000000
O  -2.5385116560  -0.6483866270  0.0000000000
O  2.2762180110  -0.0879099930  0.0000000000
O  2.8008053000  -0.9353167540  0.0000000000