3
charge=0, multiplicity=4, basis=def2-QZVPPD, AUX_BASIS_CORR=rimp2-def2-QZVPPD, SCF_ALGORITHM=GDM, xc_grid=000250000974, mem_total=3750, num_basis=167, num_pairs=13723, num_threads=1
O  0.0000000000  0.6033678990  -2.8575571450
O  0.0000000000  -0.6033678990  -2.8575571450
Li  0.0000000000  0.0000000000  2.8575571450