3
charge=0, multiplicity=3, basis=def2-QZVPPD, AUX_BASIS_CORR=rimp2-def2-QZVPPD, SCF_ALGORITHM=GDM, xc_grid=000099000590, mem_total=3750, num_basis=175, num_pairs=10388, num_threads=1
N  -0.0507949840  0.0000000000  3.7926145840
H  0.8601219490  0.0000000000  3.2966164180
Ar  -0.0103553070  0.0000000000  -3.7593179890