5
charge=0, multiplicity=2, basis=def2-QZVPPD, AUX_BASIS_CORR=rimp2-def2-QZVPPD, SCF_ALGORITHM=GDM, xc_grid=000099000590, mem_total=3750, num_basis=231, num_pairs=25883, num_threads=1
O  0.0000000000  0.0414000340  1.3951127800
H  0.7587110830  -0.2808772640  1.8902586130
H  -0.7587110830  -0.2808772640  1.8902586130
O  0.0000000000  -0.0062850120  -1.5081936240
H  0.0000000000  0.0096986940  -0.5350248770