11
charge=0, multiplicity=2, basis=def2-QZVPPD, AUX_BASIS_CORR=rimp2-def2-QZVPPD, SCF_ALGORITHM=GDM, xc_grid=000099000590, mem_total=3750, num_basis=483, num_pairs=80896, num_threads=1
H  0.9153513050  1.2434383850  -3.3000000000
H  0.9153513050  -1.2204816150  -3.3000000000
H  -0.9325686950  -1.2204816150  -3.3000000000
C  -0.0086086950  0.6786583850  -3.3000000000
C  -0.0086086950  -0.6557016150  -3.3000000000
H  -0.9497860860  1.2663951540  3.3000000000
H  0.8981339140  1.2663951540  3.3000000000
H  0.8981339140  -1.1975248460  3.3000000000
H  -0.9497860860  -1.1975248460  3.3000000000
C  -0.0258260860  0.7016151540  3.3000000000
C  -0.0258260860  -0.6327448460  3.3000000000