3
charge=0, multiplicity=2, basis=def2-QZVPPD, AUX_BASIS_CORR=rimp2-def2-QZVPPD, SCF_ALGORITHM=GDM, xc_grid=000099000590, mem_total=3750, num_basis=205, num_pairs=20178, num_threads=1
C  -0.4271127330  0.0000000000  2.1341789040
N  0.4277134760  0.0000000000  1.3394286340
Ar  -0.0330906020  0.0000000000  -1.7063179870