4
charge=0, multiplicity=2, basis=def2-QZVPPD, AUX_BASIS_CORR=rimp2-def2-QZVPPD, SCF_ALGORITHM=GDM, xc_grid=000099000590, mem_total=3750, num_basis=192, num_pairs=16301, num_threads=1
C  -2.1270000000  -0.6032611920  0.0000000000
N  -2.1270000000  0.5673388080  0.0000000000
H  2.1270000000  -0.0269417880  0.3714000000
H  2.1270000000  -0.0269417880  -0.3714000000