8
charge=0, multiplicity=2, basis=def2-QZVPPD, AUX_BASIS_CORR=rimp2-def2-QZVPPD, SCF_ALGORITHM=GDM, xc_grid=000099000590, mem_total=3750, num_basis=420, num_pairs=61604, num_threads=1
C  -3.0375112990  -0.8098043490  -0.4421750950
C  -3.5004402490  0.3504352910  -0.0404851750
H  -3.2969746490  -1.8513921790  -0.3303740150
H  -4.3903138190  0.4153178910  0.5867109350
H  -3.0207118690  1.2851608110  -0.3113523950
C  3.2971536990  0.2080623110  0.2157354490
O  3.0927660790  1.2969437910  -0.1418362810
O  3.5164057790  -0.8765103690  0.5751305190