5
charge=0, multiplicity=3, basis=def2-QZVPPD, AUX_BASIS_CORR=rimp2-def2-QZVPPD, SCF_ALGORITHM=GDM, xc_grid=000099000590, mem_total=3750, num_basis=327, num_pairs=49882, num_threads=1
C  -1.5231069930  0.3069680240  0.0000000000
O  -1.5231069930  1.4669680240  0.0000000000
O  -1.5231069930  -0.8530319760  0.0000000000
O  1.2608133490  0.1167353560  0.0000000000
O  1.7854006380  -0.7306714050  0.0000000000