4
charge=1, multiplicity=2, basis=def2-QZVPPD, AUX_BASIS_CORR=rimp2-def2-QZVPPD, SCF_ALGORITHM=GDM, xc_grid=000099000590, mem_total=3750, num_basis=228, num_pairs=26082, num_threads=1
C  0.0000000000  -0.4364348060  0.4975709490
O  0.0000000000  0.1962386790  1.4201384590
F  0.0000000000  0.1099389450  -0.9920701590
H  0.0000000000  -0.5825426760  -1.6366059030