5
charge=0, multiplicity=2, basis=def2-QZVPPD, AUX_BASIS_CORR=rimp2-def2-QZVPPD, SCF_ALGORITHM=GDM, xc_grid=000099000590, mem_total=3750, num_basis=197, num_pairs=19755, num_threads=1
N  0.0000000000  0.0000000000  1.1739326250
H  0.9373144310  0.0000000000  1.5554897140
H  -0.4686572160  -0.8117381090  1.5554897140
H  -0.4686572160  0.8117381090  1.5554897140
Li  0.0000000000  0.0000000000  -1.2416792330