7
charge=0, multiplicity=2, basis=def2-QZVPPD, AUX_BASIS_CORR=rimp2-def2-QZVPPD, SCF_ALGORITHM=GDM, xc_grid=000099000590, mem_total=3750, num_basis=324, num_pairs=37664, num_threads=1
C  -0.9551309110  2.7986203210  0.0000000000
H  -0.3786359110  2.8898613210  0.9328140000
H  -0.3786359110  2.8898613210  -0.9328140000
O  -2.1485789110  2.6147253210  0.0000000000
N  1.5815883750  -2.6330179280  0.0000000000
H  0.5985693750  -2.9221659280  0.0000000000
H  2.0999393750  -3.5160569280  0.0000000000