4
charge=0, multiplicity=5, basis=def2-QZVPPD, AUX_BASIS_CORR=rimp2-def2-QZVPPD, SCF_ALGORITHM=GDM, xc_grid=000099000590, mem_total=3750, num_basis=192, num_pairs=17856, num_threads=1
N  -1.6446143080  0.0000000000  0.0000000000
H  -0.6076143080  0.0000000000  0.0000000000
N  1.5053856920  0.0000000000  0.0000000000
H  2.5423856920  0.0000000000  0.0000000000