5
charge=0, multiplicity=2, basis=def2-QZVPPD, AUX_BASIS_CORR=rimp2-def2-QZVPPD, SCF_ALGORITHM=GDM, xc_grid=000099000590, mem_total=3750, num_basis=197, num_pairs=19845, num_threads=1
N  0.0000000000  0.0000000000  0.8635128170
H  0.9373144310  0.0000000000  1.2450699060
H  -0.4686572160  -0.8117381090  1.2450699060
H  -0.4686572160  0.8117381090  1.2450699060
Li  0.0000000000  0.0000000000  -0.9312594240