4
charge=0, multiplicity=5, basis=def2-QZVPPD, AUX_BASIS_CORR=rimp2-def2-QZVPPD, SCF_ALGORITHM=GDM, xc_grid=000099000590, mem_total=3750, num_basis=192, num_pairs=14265, num_threads=1
N  -2.6946143080  0.0000000000  0.0000000000
H  -1.6576143080  0.0000000000  0.0000000000
N  2.5553856920  0.0000000000  0.0000000000
H  3.5923856920  0.0000000000  0.0000000000