5
charge=0, multiplicity=3, basis=def2-QZVPPD, AUX_BASIS_CORR=rimp2-def2-QZVPPD, SCF_ALGORITHM=GDM, xc_grid=000099000590, mem_total=3750, num_basis=264, num_pairs=33865, num_threads=1
O  -1.6023547540  -0.1315872910  0.0000000000
H  -0.9119853710  0.4836046830  0.0000000000
H  -0.8759765310  -0.8239285330  0.0000000000
O  1.4479797360  0.6995995720  0.0000000000
O  1.5981980610  -0.4277921150  0.0000000000