5
charge=0, multiplicity=2, basis=def2-QZVPPD, AUX_BASIS_CORR=rimp2-def2-QZVPPD, SCF_ALGORITHM=GDM, xc_grid=000099000590, mem_total=3750, num_basis=225, num_pairs=25756, num_threads=1
C  -1.3862325050  -0.7049899740  -0.3339759380
C  -1.8491614550  0.4552496660  0.0677139820
H  -1.6456958550  -1.7465778040  -0.2221748580
H  -2.7390350250  0.5201322660  0.6949100920
H  -1.3694330750  1.3899751860  -0.2031532380