3
charge=0, multiplicity=2, basis=def2-QZVPPD, AUX_BASIS_CORR=rimp2-def2-QZVPPD, SCF_ALGORITHM=GDM, xc_grid=000099000590, mem_total=3750, num_basis=159, num_pairs=11232, num_threads=1
C  -0.7137666610  0.0000000000  1.7998710200
N  0.2428704010  0.0000000000  2.4686021870
He  0.1987525420  0.0000000000  -2.1598884250