5
charge=0, multiplicity=3, basis=def2-QZVPPD, AUX_BASIS_CORR=rimp2-def2-QZVPPD, SCF_ALGORITHM=GDM, xc_grid=000099000590, mem_total=3750, num_basis=264, num_pairs=27073, num_threads=1
H  -3.2933873890  0.0519942300  0.0000000000
O  -2.3467071450  -0.1009267290  0.0000000000
H  -1.9616125790  0.7775626660  0.0000000000
O  2.2547314090  0.6342276750  0.0000000000
O  2.5015233890  -0.5477873280  0.0000000000