11
charge=0, multiplicity=2, basis=def2-QZVPPD, AUX_BASIS_CORR=rimp2-def2-QZVPPD, SCF_ALGORITHM=GDM, xc_grid=000099000590, mem_total=3750, num_basis=483, num_pairs=88218, num_threads=1
H  0.9101860870  1.2503254160  -2.6400000000
H  0.9101860870  -1.2135945840  -2.6400000000
H  -0.9377339130  -1.2135945840  -2.6400000000
C  -0.0137739130  0.6855454160  -2.6400000000
C  -0.0137739130  -0.6488145840  -2.6400000000
H  -0.9446208690  1.2595081230  2.6400000000
H  0.9032991310  1.2595081230  2.6400000000
H  0.9032991310  -1.2044118770  2.6400000000
H  -0.9446208690  -1.2044118770  2.6400000000
C  -0.0206608690  0.6947281230  2.6400000000
C  -0.0206608690  -0.6396318770  2.6400000000