3
charge=0, multiplicity=4, basis=def2-QZVPPD, AUX_BASIS_CORR=rimp2-def2-QZVPPD, SCF_ALGORITHM=GDM, xc_grid=000099000590, mem_total=3750, num_basis=167, num_pairs=13255, num_threads=1
O  0.0000000000  0.6033678990  -3.5719464310
O  0.0000000000  -0.6033678990  -3.5719464310
Li  0.0000000000  0.0000000000  3.5719464310