4
charge=0, multiplicity=2, basis=def2-QZVPPD, AUX_BASIS_CORR=rimp2-def2-QZVPPD, SCF_ALGORITHM=GDM, xc_grid=000099000590, mem_total=3750, num_basis=192, num_pairs=13077, num_threads=1
C  -3.5450000000  -0.5853000000  0.0000000000
N  -3.5450000000  0.5853000000  0.0000000000
H  3.5450000000  -0.0449029800  0.3714000000
H  3.5450000000  -0.0449029800  -0.3714000000