6
charge=0, multiplicity=2, basis=def2-QZVPPD, AUX_BASIS_CORR=rimp2-def2-QZVPPD, SCF_ALGORITHM=GDM, xc_grid=000099000590, mem_total=3750, num_basis=297, num_pairs=38330, num_threads=1
O  0.0092815380  -0.0889408630  -1.8273431080
H  0.0353853740  -0.9622767970  -2.1836572070
H  -0.1746609290  0.4942939800  -2.5459244110
H  0.0074503020  0.4218652940  0.6749154860
O  0.0066448100  0.6595459300  1.5989202060
O  -0.0080437510  -0.4691536250  2.2524350720