4
charge=0, multiplicity=3, basis=def2-QZVPPD, AUX_BASIS_CORR=rimp2-def2-QZVPPD, SCF_ALGORITHM=GDM, xc_grid=000099000590, mem_total=3750, num_basis=198, num_pairs=18543, num_threads=1
O  -0.3004250000  0.0000000000  -1.6395500000
O  0.9012750000  0.0000000000  -1.6395500000
H  -0.3004250000  -0.3714000000  1.6395500000
H  -0.3004250000  0.3714000000  1.6395500000