3
charge=0, multiplicity=1, basis=def2-QZVPPD, AUX_BASIS_CORR=rimp2-def2-QZVPPD, SCF_ALGORITHM=GDM, xc_grid=000099000590, mem_total=3750, num_basis=132, num_pairs=9017, num_threads=1
O  -1.7715868540  -0.1466877050  0.0000000000
H  -1.0812174710  0.4685042690  0.0000000000
H  -1.0452086310  -0.8390289470  0.0000000000