3
charge=0, multiplicity=2, basis=def2-QZVPPD, AUX_BASIS_CORR=rimp2-def2-QZVPPD, SCF_ALGORITHM=GDM, xc_grid=000099000590, mem_total=3750, num_basis=159, num_pairs=12257, num_threads=1
C  -0.6640785250  0.0000000000  1.2598989140
N  0.2925585360  0.0000000000  1.9286300810
He  0.1490644070  0.0000000000  -1.6199163190