6
charge=0, multiplicity=2, basis=def2-QZVPPD, AUX_BASIS_CORR=rimp2-def2-QZVPPD, SCF_ALGORITHM=GDM, xc_grid=000099000590, mem_total=3750, num_basis=297, num_pairs=34922, num_threads=1
O  0.0093941880  -0.1152338070  -2.2992137620
H  0.0354980240  -0.9885697420  -2.6555278610
H  -0.1745482790  0.4680010350  -3.0177950650
H  0.0073376530  0.4481582380  1.1467861390
O  0.0065321600  0.6858388750  2.0707908600
O  -0.0081564000  -0.4428606810  2.7243057260