3
charge=0, multiplicity=2, basis=def2-QZVPPD, AUX_BASIS_CORR=rimp2-def2-QZVPPD, SCF_ALGORITHM=GDM, xc_grid=000099000590, mem_total=3750, num_basis=159, num_pairs=10045, num_threads=1
C  -0.8462683560  0.0000000000  3.2397966370
N  0.1103687060  0.0000000000  3.9085278040
He  0.3312542370  0.0000000000  -3.5998140420