6
charge=0, multiplicity=2, basis=def2-QZVPPD, AUX_BASIS_CORR=rimp2-def2-QZVPPD, SCF_ALGORITHM=GDM, xc_grid=000099000590, mem_total=3750, num_basis=297, num_pairs=30967, num_threads=1
O  0.0095819370  -0.1590553820  -3.0856648520
H  0.0356857730  -1.0323913160  -3.4419789510
H  -0.1743605300  0.4241794610  -3.8042461550
H  0.0071499040  0.4919798130  1.9332372290
O  0.0063444110  0.7296604490  2.8572419500
O  -0.0083441490  -0.3990391060  3.5107568160