6
charge=0, multiplicity=2, basis=def2-QZVPPD, AUX_BASIS_CORR=rimp2-def2-QZVPPD, SCF_ALGORITHM=GDM, xc_grid=000099000590, mem_total=3750, num_basis=297, num_pairs=42009, num_threads=1
O  0.0091688890  -0.0626479180  -1.3554724540
H  0.0352727250  -0.9359838530  -1.7117865530
H  -0.1747735780  0.5205869250  -2.0740537570
H  0.0075629520  0.3955723490  0.2030448320
O  0.0067574590  0.6332529860  1.1270495520
O  -0.0079311010  -0.4954465700  1.7805644180