5
charge=0, multiplicity=3, basis=def2-QZVPPD, AUX_BASIS_CORR=rimp2-def2-QZVPPD, SCF_ALGORITHM=GDM, xc_grid=000099000590, mem_total=3750, num_basis=264, num_pairs=29849, num_threads=1
H  -2.8177619090  0.0606382640  0.0000000000
O  -1.8710816650  -0.0922826940  0.0000000000
H  -1.4859870990  0.7862067000  0.0000000000
O  1.7791059290  0.6255836410  0.0000000000
O  2.0258979100  -0.5564313620  0.0000000000