4
charge=1, multiplicity=2, basis=def2-QZVPPD, AUX_BASIS_CORR=rimp2-def2-QZVPPD, SCF_ALGORITHM=GDM, xc_grid=000099000590, mem_total=3750, num_basis=228, num_pairs=25805, num_threads=1
C  0.0000000000  -0.4447738070  0.6114090070
O  0.0000000000  0.1878996780  1.5339765180
F  0.0000000000  0.1182779460  -1.1059082170
H  0.0000000000  -0.5742036740  -1.7504439620