6
charge=0, multiplicity=2, basis=def2-QZVPPD, AUX_BASIS_CORR=rimp2-def2-QZVPPD, SCF_ALGORITHM=GDM, xc_grid=000099000590, mem_total=3750, num_basis=297, num_pairs=40736, num_threads=1
O  0.0092064390  -0.0714122330  -1.5127626720
H  0.0353102750  -0.9447481680  -1.8690767710
H  -0.1747360280  0.5118226100  -2.2313439750
H  0.0075254020  0.4043366640  0.3603350500
O  0.0067199090  0.6420173000  1.2843397700
O  -0.0079686510  -0.4866822550  1.9378546360