7
charge=0, multiplicity=2, basis=def2-QZVPPD, AUX_BASIS_CORR=rimp2-def2-QZVPPD, SCF_ALGORITHM=GDM, xc_grid=000099000590, mem_total=3750, num_basis=324, num_pairs=49936, num_threads=1
C  -0.1789522680  1.4452416960  0.0000000000
H  0.3975427320  1.5364826960  0.9328140000
H  0.3975427320  1.5364826960  -0.9328140000
O  -1.3724002680  1.2613466960  0.0000000000
N  0.8054097320  -1.2796393040  0.0000000000
H  -0.1776092680  -1.5687873040  0.0000000000
H  1.3237607320  -2.1626783040  0.0000000000