8
charge=0, multiplicity=2, basis=def2-QZVPPD, AUX_BASIS_CORR=rimp2-def2-QZVPPD, SCF_ALGORITHM=GDM, xc_grid=000099000590, mem_total=3750, num_basis=420, num_pairs=68552, num_threads=1
C  -2.2118719020  -0.7573971620  -0.3880755160
C  -2.6748008520  0.4028424780  0.0136144040
H  -2.4713352520  -1.7989849920  -0.2762744360
H  -3.5646744220  0.4677250780  0.6408105140
H  -2.1950724720  1.3375679980  -0.2572528160
C  2.4715143020  0.1556551240  0.1616358700
O  2.2671266820  1.2445366040  -0.1959358600
O  2.6907663820  -0.9289175560  0.5210309400