3
charge=0, multiplicity=3, basis=def2-QZVPPD, AUX_BASIS_CORR=rimp2-def2-QZVPPD, SCF_ALGORITHM=GDM, xc_grid=000099000590, mem_total=3750, num_basis=175, num_pairs=11654, num_threads=1
N  -0.0533838110  0.0000000000  2.8527850870
H  0.8575331220  0.0000000000  2.3567869210
Ar  -0.0077664800  0.0000000000  -2.8194884910