5
charge=0, multiplicity=2, basis=def2-QZVPPD, AUX_BASIS_CORR=rimp2-def2-QZVPPD, SCF_ALGORITHM=GDM, xc_grid=000099000590, mem_total=3750, num_basis=231, num_pairs=24610, num_threads=1
O  0.0000000000  0.0424675810  1.6852165350
H  0.7587110830  -0.2798097160  2.1803623690
H  -0.7587110830  -0.2798097160  2.1803623690
O  0.0000000000  -0.0073525590  -1.7982973800
H  0.0000000000  0.0086311470  -0.8251286320