4
charge=0, multiplicity=3, basis=def2-QZVPPD, AUX_BASIS_CORR=rimp2-def2-QZVPPD, SCF_ALGORITHM=GDM, xc_grid=000099000590, mem_total=3750, num_basis=198, num_pairs=15535, num_threads=1
O  -0.1502125000  0.0000000000  -2.4593250000
O  1.0514875000  0.0000000000  -2.4593250000
H  -0.4506375000  -0.3714000000  2.4593250000
H  -0.4506375000  0.3714000000  2.4593250000