7
charge=0, multiplicity=2, basis=def2-QZVPPD, AUX_BASIS_CORR=rimp2-def2-QZVPPD, SCF_ALGORITHM=GDM, xc_grid=000099000590, mem_total=3750, num_basis=324, num_pairs=51146, num_threads=1
C  -0.1013344040  1.3099038340  0.0000000000
H  0.4751605960  1.4011448340  0.9328140000
H  0.4751605960  1.4011448340  -0.9328140000
O  -1.2947824040  1.1260088340  0.0000000000
N  0.7277918680  -1.1443014410  0.0000000000
H  -0.2552271320  -1.4334494410  0.0000000000
H  1.2461428680  -2.0273404410  0.0000000000