4
charge=0, multiplicity=5, basis=def2-QZVPPD, AUX_BASIS_CORR=rimp2-def2-QZVPPD, SCF_ALGORITHM=GDM, xc_grid=000099000590, mem_total=3750, num_basis=264, num_pairs=26728, num_threads=1
O  0.6010000000  -2.4750000000  0.0000000000
O  -0.6010000000  -2.4750000000  0.0000000000
O  0.0000000000  2.4750000000  0.6010000000
O  0.0000000000  2.4750000000  -0.6010000000