5
charge=0, multiplicity=3, basis=def2-QZVPPD, AUX_BASIS_CORR=rimp2-def2-QZVPPD, SCF_ALGORITHM=GDM, xc_grid=000099000590, mem_total=3750, num_basis=327, num_pairs=37750, num_threads=1
C  -3.3846822080  0.6821511650  0.0000000000
O  -3.3846822080  1.8421511640  0.0000000000
O  -3.3846822080  -0.4778488350  0.0000000000
O  3.1223885630  -0.2584477840  0.0000000000
O  3.6469758520  -1.1058545450  0.0000000000