11
charge=0, multiplicity=2, basis=def2-QZVPPD, mem_total=3750, AUX_BASIS_CORR=rimp2-def2-QZVPPD, SCF_ALGORITHM=GDM, xc_grid=000099000590, num_basis=483, num_pairs=101620, num_threads=1
H  0.9050208700  1.2572124460  -1.9800000000
H  0.9050208700  -1.2067075540  -1.9800000000
H  -0.9428991300  -1.2067075540  -1.9800000000
C  -0.0189391300  0.6924324460  -1.9800000000
C  -0.0189391300  -0.6419275540  -1.9800000000
H  -0.9394556520  1.2526210930  1.9800000000
H  0.9084643480  1.2526210930  1.9800000000
H  0.9084643480  -1.2112989070  1.9800000000
H  -0.9394556520  -1.2112989070  1.9800000000
C  -0.0154956520  0.6878410930  1.9800000000
C  -0.0154956520  -0.6465189070  1.9800000000