4
charge=0, multiplicity=1, basis=AUG-CC-PVQZ, multipole_field={'x': -1.135358287856799e-08, 'y': -5.468750170301621e-09, 'z': -0.019999999999996028}, AUX_BASIS_CORR=rimp2-def2-QZVPPD, SCF_ALGORITHM=GDM, xc_grid=000099000590, mem_total=3750, num_basis=252, num_pairs=32426, num_threads=1
C -1.1226e-6 -3.5389e-6 0.5334393181
O 1.8666e-6 1.1383e-6 -0.6861796574
H 0.9335160336 1.2003e-6 1.111231046
H -0.9335167826 1.2003e-6 1.1112339733