6
charge=0, multiplicity=1, basis=AUG-CC-PVQZ, multipole_field={'x': -0.009948161790476745, 'y': 0.001016895723282656, 'z': -2.801212825205606e-07}, AUX_BASIS_CORR=rimp2-def2-QZVPPD, SCF_ALGORITHM=GDM, xc_grid=000099000590, mem_total=3750, num_basis=344, num_pairs=60049, num_threads=1
C 0.668878704 -0.0162850208 -2.20404e-5
O -0.7598661723 0.127225218 -8.11177e-5
H -1.1243133256 -0.7584054795 0.0001061387
H 1.0908805529 0.9846646218 3.25306e-5
H 1.015039039 -0.5442747459 -0.8900111368
H 1.0149529417 -0.5443171304 0.8899756256