4
charge=0, multiplicity=1, basis=AUG-CC-PVQZ, multipole_field={}, AUX_BASIS_CORR=rimp2-def2-QZVPPD, SCF_ALGORITHM=GDM, xc_grid=000099000590, mem_total=3750, num_basis=252, num_pairs=32426, num_threads=1
C 3.667e-7 -0.0001497601 0.5299187045
O -7.116e-7 -0.0001842841 -0.6777934959
H 0.9381260725 0.0001670886 1.1088003035
H -0.9381257326 0.0001669557 1.1087991679