5
charge=0, multiplicity=1, basis=AUG-CC-PVQZ, multipole_field={'x': -0.009893048673756451, 'y': 0.001458625359121469, 'z': -2.0334079117676875e-08}, AUX_BASIS_CORR=rimp2-def2-QZVPPD, SCF_ALGORITHM=GDM, xc_grid=000099000590, mem_total=3750, num_basis=298, num_pairs=45166, num_threads=1
C 0.5873486818 -0.0244342405 4.1717e-6
N -0.6782027157 0.160060715 3.473e-7
H 1.0582574206 -1.0075129437 -7.651e-7
H 1.2495324806 0.8364882189 -2.2959e-6
H -1.145062545 -0.7475343758 -1.458e-6