6
charge=0, multiplicity=1, basis=AUG-CC-PVQZ, multipole_field={'x': 0.02553838701288771, 'y': 0.015741371877179167, 'z': 4.5201878204582276e-07}, AUX_BASIS_CORR=rimp2-def2-QZVPPD, SCF_ALGORITHM=GDM, xc_grid=000099000590, mem_total=3750, num_basis=378, num_pairs=72118, num_threads=1
C 0.1478701014 -0.3868781594 1.1659e-6
O 1.2159443078 0.2602053336 -4.1155e-6
N -1.0672364961 0.1494541243 1.49588e-5
H -1.9041119598 -0.4215706811 -9.2564e-6
H -1.1782866524 1.148623834 -2.6534e-6
H 0.1280339339 -1.4828122226 -9.95e-8