3
charge=0, multiplicity=1, basis=AUG-CC-PVQZ, multipole_field={'z': 0.05}, AUX_BASIS_CORR=rimp2-def2-QZVPPD, SCF_ALGORITHM=GDM, xc_grid=000099000590, mem_total=3750, num_basis=206, num_pairs=21785, num_threads=1
C 1.3174e-6 1.4354e-6 -0.4921898765
N -6.397e-7 -7.018e-7 0.6711664466
H -6.777e-7 -7.336e-7 -1.5900817628