6
charge=0, multiplicity=1, basis=AUG-CC-PVQZ, multipole_field={'x': 0.049740808952383725, 'y': -0.0050844786164132814, 'z': 1.400606412602803e-06}, AUX_BASIS_CORR=rimp2-def2-QZVPPD, SCF_ALGORITHM=GDM, xc_grid=000099000590, mem_total=3750, num_basis=344, num_pairs=60039, num_threads=1
C 0.6513922715 -0.0360652298 -1.20017e-5
O -0.7035093201 0.0940072824 -8.32339e-5
H -1.2423004174 -0.7142490099 0.0001043002
H 1.036705055 0.9959586536 3.06589e-5
H 1.0816788584 -0.545499651 -0.9019496241
H 1.0816052922 -0.5455445818 0.9019099004