5
charge=0, multiplicity=1, basis=AUG-CC-PVQZ, multipole_field={}, AUX_BASIS_CORR=rimp2-def2-QZVPPD, SCF_ALGORITHM=GDM, xc_grid=000099000590, mem_total=3750, num_basis=332, num_pairs=55932, num_threads=1
C -0.1346121663 -0.4001339729 -1.973e-7
O -1.1328339474 0.2665007683 1.434e-7
O 1.1171121775 0.0898301061 1.723e-7
H -0.1083779956 -1.4938104704 -8.5e-9
H 1.0386663977 1.0542147954 -1.099e-7