6
charge=0, multiplicity=1, basis=AUG-CC-PVQZ, multipole_field={'x': -0.03999999999998899, 'y': -2.968072278310624e-08, 'z': -6.895521454661049e-11}, AUX_BASIS_CORR=rimp2-def2-QZVPPD, SCF_ALGORITHM=GDM, xc_grid=000099000590, mem_total=3750, num_basis=344, num_pairs=59944, num_threads=1
C 0.6663495494 2.5928e-6 0.0003246547
C -0.6780234427 -1.07622e-5 9.08126e-5
H 1.2496946878 0.915197772 0.0001489862
H 1.249695079 -0.9151881518 -0.0004181098
H -1.2438455554 0.9335930523 -0.000353083
H -1.2438703181 -0.9335947516 0.0002067394