6
charge=0, multiplicity=1, basis=AUG-CC-PVQZ, multipole_field={'x': -0.04999999999998624, 'y': -3.7100903478882803e-08, 'z': -8.619401818326313e-11}, AUX_BASIS_CORR=rimp2-def2-QZVPPD, SCF_ALGORITHM=GDM, xc_grid=000099000590, mem_total=3750, num_basis=344, num_pairs=59894, num_threads=1
C 0.6682538988 3.1152e-6 -3.1719e-6
C -0.6826211335 -1.5606e-6 -3.338e-6
H 1.2597832558 0.913424915 -6.9394e-6
H 1.2597764112 -0.9134262227 1.01397e-5
H -1.2525986184 0.9362741711 1.03362e-5
H -1.2525938138 -0.9362746665 -7.0264e-6