6
charge=0, multiplicity=1, basis=AUG-CC-PVQZ, multipole_field={'x': -0.02553838701288771, 'y': -0.015741371877179167, 'z': -4.5201878204582276e-07}, AUX_BASIS_CORR=rimp2-def2-QZVPPD, SCF_ALGORITHM=GDM, xc_grid=000099000590, mem_total=3750, num_basis=378, num_pairs=72123, num_threads=1
C 0.1822137355 -0.389002469 1.83043e-5
O 1.1873625477 0.2460560017 -4.00986e-5
N -1.0953665811 0.1658071379 0.0001629467
H -1.9048745796 -0.4246484321 -8.73052e-5
H -1.177921728 1.1707706312 -4.8165e-5
H 0.1507998405 -1.5019606409 -5.6821e-6