5
charge=0, multiplicity=1, basis=AUG-CC-PVQZ, multipole_field={'x': 0.019786097347512903, 'y': -0.002917250718242938, 'z': 4.066815823535375e-08}, AUX_BASIS_CORR=rimp2-def2-QZVPPD, SCF_ALGORITHM=GDM, xc_grid=000099000590, mem_total=3750, num_basis=298, num_pairs=45166, num_threads=1
C 0.5946603187 -0.0368798082 3.3843e-6
N -0.6599727273 0.1442449786 -6.306e-7
H 1.0981280593 -1.0134589367 -1.0085e-6
H 1.233995441 0.848572448 -1.3671e-6
H -1.1949377696 -0.7254113076 -3.78e-7