5
charge=0, multiplicity=1, basis=AUG-CC-PVQZ, multipole_field={'x': 7.58563738456675e-08, 'y': -5.280192188553458e-08, 'z': -0.02999999999985763}, AUX_BASIS_CORR=rimp2-def2-QZVPPD, SCF_ALGORITHM=GDM, xc_grid=000099000590, mem_total=3750, num_basis=298, num_pairs=45183, num_threads=1
C -3.5609e-6 -1.781e-6 0.6548846578
F 2.7976e-6 2.849e-6 -0.7867671805
H 1.0331328103 -2.428e-7 0.9870274956
H -0.5165661215 -0.8947243295 0.9870333334
H -0.5165659255 0.8947235044 0.987028335