6
charge=0, multiplicity=1, basis=AUG-CC-PVQZ, multipole_field={}, AUX_BASIS_CORR=rimp2-def2-QZVPPD, SCF_ALGORITHM=GDM, xc_grid=000099000590, mem_total=3750, num_basis=378, num_pairs=72132, num_threads=1
C 0.1629906342 -0.3882402966 9.8136e-6
O 1.1947147588 0.249385971 -1.57004e-5
N -1.0806330215 0.1577987939 3.36557e-5
H -1.8994316888 -0.4204927912 -2.52701e-5
H -1.177987076 1.1581577847 -4.5291e-6
H 0.1425596282 -1.4895872329 2.0302e-6