6
charge=0, multiplicity=1, basis=AUG-CC-PVQZ, multipole_field={}, AUX_BASIS_CORR=rimp2-def2-QZVPPD, SCF_ALGORITHM=GDM, xc_grid=000099000590, mem_total=3750, num_basis=344, num_pairs=59944, num_threads=1
C 0.6674014788 -2.1028e-6 -1.781e-7
C -0.6674016449 -2.1047e-6 -1.786e-7
H 1.2322151098 0.9235514445 8.81e-8
H 1.2322270708 -0.9235493849 9.02e-8
H -1.2322150088 0.9235515007 9.03e-8
H -1.2322270055 -0.9235496014 8.82e-8