7
charge=0, multiplicity=1, basis=AUG-CC-PVQZ, multipole_field={'x': 0.0199006814874997, 'y': -9.440581856092234e-07, 'z': -0.0019906972250548056}, AUX_BASIS_CORR=rimp2-def2-QZVPPD, SCF_ALGORITHM=GDM, xc_grid=000099000590, mem_total=3750, num_basis=390, num_pairs=76993, num_threads=1
C -0.7108597516 -5.38255e-5 0.0052466153
N 0.7718686573 -0.0001483165 -0.1477092958
H -1.0320314535 0.0005396053 1.0484129844
H -1.124951882 -0.8797691276 -0.4817667097
H -1.1249463213 0.8791154815 -0.482749229
H 1.1273905622 -0.8054739434 0.3575074046
H 1.1274178306 0.8056998559 0.356654428