8
charge=0, multiplicity=1, basis=AUG-CC-PVQZ, multipole_field={'x': -4.468863741003725e-08, 'y': 1.8808613774916726e-08, 'z': 0.029999999999960822}, AUX_BASIS_CORR=rimp2-def2-QZVPPD, SCF_ALGORITHM=GDM, xc_grid=000099000590, mem_total=3750, num_basis=436, num_pairs=95982, num_threads=1
C -2.397e-7 -3.4088e-6 -0.7669821214
C -2.1583e-6 -3.9023e-6 0.7676657201
H 0.8788242205 0.5074167304 -1.1628090512
H -0.878847481 0.5073834868 -1.1628081314
H 2.60785e-5 -1.0147956753 -1.1628259705
H 0.8872623008 -0.5122875915 1.1625905499
H 2.20554e-5 1.0245371189 1.1625734039
H -0.8872847616 -0.5122467582 1.1625956006