5
charge=0, multiplicity=1, basis=AUG-CC-PVQZ, multipole_field={'x': -0.02967914602126935, 'y': 0.0043758760773644064, 'z': -6.100223735303062e-08}, AUX_BASIS_CORR=rimp2-def2-QZVPPD, SCF_ALGORITHM=GDM, xc_grid=000099000590, mem_total=3750, num_basis=298, num_pairs=45166, num_threads=1
C 0.5834683695 -0.0164284321 -7.592e-7
N -0.6930658901 0.1663721723 -1.4133e-6
H 1.0442053187 -1.0036482713 4.87e-7
H 1.2635349285 0.8298952846 8.541e-7
H -1.1262694044 -0.7591233794 8.316e-7