6
charge=0, multiplicity=1, basis=AUG-CC-PVQZ, multipole_field={'x': -0.029844485371430234, 'y': 0.0030506871698479684, 'z': -8.403638475616817e-07}, AUX_BASIS_CORR=rimp2-def2-QZVPPD, SCF_ALGORITHM=GDM, xc_grid=000099000590, mem_total=3750, num_basis=344, num_pairs=60049, num_threads=1
C 0.678234852 -0.0094627294 -2.08568e-5
O -0.7879031952 0.1343161574 -8.6324e-5
H -1.1007123726 -0.7705791921 0.0001102988
H 1.1105619875 0.9849972743 3.25016e-5
H 1.0027397266 -0.545309104 -0.8902185296
H 1.0026507412 -0.5453549429 0.89018291