5
charge=0, multiplicity=1, basis=AUG-CC-PVQZ, multipole_field={'x': -0.016630558069028488, 'y': 0.011109659674857712, 'z': 4.706505064745046e-07}, AUX_BASIS_CORR=rimp2-def2-QZVPPD, SCF_ALGORITHM=GDM, xc_grid=000099000590, mem_total=3750, num_basis=332, num_pairs=55962, num_threads=1
C -0.1296472201 -0.3992713977 -3.3088e-6
O -1.1497056156 0.2667797068 -4.1423e-6
O 1.0975598074 0.0877635318 6.2063e-6
H -0.0969675229 -1.4917034762 1.5995e-6
H 1.058715017 1.0530328619 -3.547e-7