5
charge=0, multiplicity=1, basis=AUG-CC-PVQZ, multipole_field={'x': -7.58563738456675e-08, 'y': 5.280192188553458e-08, 'z': 0.02999999999985763}, AUX_BASIS_CORR=rimp2-def2-QZVPPD, SCF_ALGORITHM=GDM, xc_grid=000099000590, mem_total=3750, num_basis=298, num_pairs=45183, num_threads=1
C -4.1143e-6 -3.6306e-6 0.6164871107
F 4.2331e-6 2.1467e-6 -0.7319390409
H 1.0346513202 4.0844e-6 0.9815490382
H -0.5173288283 -0.8960407945 0.981556002
H -0.5173226106 0.896038194 0.9815535312