7
charge=0, multiplicity=1, basis=AUG-CC-PVQZ, multipole_field={'x': 0.0398013629749994, 'y': -1.8881163712184468e-06, 'z': -0.003981394450109611}, AUX_BASIS_CORR=rimp2-def2-QZVPPD, SCF_ALGORITHM=GDM, xc_grid=000099000590, mem_total=3750, num_basis=390, num_pairs=76993, num_threads=1
C -0.7181122014 6.20909e-5 -0.008963228
N 0.8005131478 0.0001618334 -0.1647331002
H -0.9971885515 0.0011168073 1.0455175983
H -1.1394472293 -0.8834434521 -0.4808556764
H -1.139961906 0.8823065047 -0.4827730447
H 1.1140370458 -0.8046784825 0.3732561703
H 1.1140473362 0.8043844279 0.3741474784