5
charge=0, multiplicity=1, basis=AUG-CC-PVQZ, multipole_field={'x': -0.049465243368782254, 'y': 0.007293126795607345, 'z': -1.0167039558838438e-07}, AUX_BASIS_CORR=rimp2-def2-QZVPPD, SCF_ALGORITHM=GDM, xc_grid=000099000590, mem_total=3750, num_basis=298, num_pairs=45166, num_threads=1
C 0.5811784503 -0.0034190438 1.3544e-6
N -0.7109911722 0.164125064 2.58685e-5
H 1.0346530782 -0.9988977857 1.20293e-5
H 1.2871997381 0.8255900105 -1.44164e-5
H -1.1201667721 -0.7703308709 -2.48357e-5