5
charge=0, multiplicity=1, basis=AUG-CC-PVQZ, multipole_field={'x': -0.039572194695025806, 'y': 0.005834501436485876, 'z': -8.13363164707075e-08}, AUX_BASIS_CORR=rimp2-def2-QZVPPD, SCF_ALGORITHM=GDM, xc_grid=000099000590, mem_total=3750, num_basis=298, num_pairs=45166, num_threads=1
C 0.5819440554 -0.011814107 -2.2546e-6
N -0.7018291353 0.1680758278 -1.8404e-6
H 1.039588412 -1.0016474189 9.229e-7
H 1.2726486825 0.8270981341 1.75e-6
H -1.1204786923 -0.7646450621 1.422e-6