5
charge=0, multiplicity=1, basis=AUG-CC-PVQZ, multipole_field={'x': -0.024945837103542732, 'y': 0.01666448951228657, 'z': 7.059757597117569e-07}, AUX_BASIS_CORR=rimp2-def2-QZVPPD, SCF_ALGORITHM=GDM, xc_grid=000099000590, mem_total=3750, num_basis=332, num_pairs=55932, num_threads=1
C -0.1281406237 -0.3988697469 -9.5654e-6
O -1.1609702061 0.2674280243 -6.6412e-6
O 1.0877819555 0.0869722001 8.3376e-6
H -0.0898331511 -1.4915639176 5.0598e-6
H 1.0711164912 1.0526346666 2.8093e-6