6
charge=0, multiplicity=1, basis=AUG-CC-PVQZ, multipole_field={}, mem_total=3750, AUX_BASIS_CORR=rimp2-def2-QZVPPD, SCF_ALGORITHM=GDM, xc_grid=000099000590, num_basis=344, num_pairs=60049, num_threads=1
C 0.6654245273 -0.0196835874 -1.58701e-5
O -0.7484082468 0.1233319641 -5.70317e-5
H -1.1380079898 -0.752316805 7.46815e-5
H 1.0819323047 0.9853776928 2.34097e-5
H 1.0223453926 -0.5440361936 -0.8907294175
H 1.0222857515 -0.5440656077 0.8907042282