4
charge=0, multiplicity=1, basis=AUG-CC-PVQZ, multipole_field={'x': -1.7030374317851983e-08, 'y': -8.20312525545243e-09, 'z': -0.029999999999994042}, AUX_BASIS_CORR=rimp2-def2-QZVPPD, SCF_ALGORITHM=GDM, xc_grid=000099000590, mem_total=3750, num_basis=252, num_pairs=32426, num_threads=1
C -2.1123e-6 -3.803e-6 0.5349249474
O 3.6763e-6 1.2204e-6 -0.6917954578
H 0.9318633391 1.2913e-6 1.1132946695
H -0.931864908 1.2913e-6 1.113300521