4
charge=0, multiplicity=1, basis=AUG-CC-PVQZ, multipole_field={'x': 2.8383957196419976e-08, 'y': 1.3671875425754053e-08, 'z': 0.04999999999999007}, AUX_BASIS_CORR=rimp2-def2-QZVPPD, SCF_ALGORITHM=GDM, xc_grid=000099000590, mem_total=3750, num_basis=252, num_pairs=32426, num_threads=1
C -5.055e-7 2.192e-7 0.5086450155
O -1.377e-7 -7.2e-8 -0.675752636
H 0.9532222139 -8.0e-8 1.1184164481
H -0.9532215756 -8.0e-8 1.1184158524