5
charge=0, multiplicity=1, basis=AUG-CC-PVQZ, multipole_field={'x': 1.0114183179422333e-07, 'y': -7.040256251404612e-08, 'z': -0.039999999999810174}, AUX_BASIS_CORR=rimp2-def2-QZVPPD, SCF_ALGORITHM=GDM, xc_grid=000099000590, mem_total=3750, num_basis=298, num_pairs=45183, num_threads=1
C -3.4958e-6 -1.0479e-6 0.6659617432
F 3.3425e-6 2.8666e-6 -0.8042134183
H 1.0354531084 -2.0701e-6 0.9891499201
H -0.5177252098 -0.8967324713 0.9891568805
H -0.5177277453 0.8967327228 0.9891515158