5
charge=0, multiplicity=1, basis=AUG-CC-PVQZ, multipole_field={'x': 5.0570915897111665e-08, 'y': -3.520128125702306e-08, 'z': -0.019999999999905087}, AUX_BASIS_CORR=rimp2-def2-QZVPPD, SCF_ALGORITHM=GDM, xc_grid=000099000590, mem_total=3750, num_basis=298, num_pairs=45183, num_threads=1
C -3.0733e-6 -2.7661e-6 0.6463052985
F 3.0836e-6 2.0749e-6 -0.7729920597
H 1.0318315496 2.412e-6 0.9852951167
H -0.5159176693 -0.8935965713 0.9853006541
H -0.5159138907 0.8935948506 0.9852976315