4
charge=0, multiplicity=1, basis=AUG-CC-PVQZ, multipole_field={'z': -0.04}, AUX_BASIS_CORR=rimp2-def2-QZVPPD, SCF_ALGORITHM=GDM, xc_grid=000099000590, mem_total=3750, num_basis=252, num_pairs=32289, num_threads=1
C -8.2807e-6 -5.1544e-6 0.6019382224
C -4.5835e-6 8.0583e-6 -0.6126742292
H 7.0618e-6 9.453e-7 1.6849244067
H 5.8024e-6 -3.8493e-6 -1.6741884