4
charge=0, multiplicity=1, basis=AUG-CC-PVQZ, multipole_field={'x': 5.676791439283995e-09, 'y': 2.7343750851508105e-09, 'z': 0.009999999999998014}, AUX_BASIS_CORR=rimp2-def2-QZVPPD, SCF_ALGORITHM=GDM, xc_grid=000099000590, mem_total=3750, num_basis=252, num_pairs=32426, num_threads=1
C 8.95e-8 7.917e-7 0.5272037079
O 1.3e-9 -2.567e-7 -0.6751263398
H 0.9404104537 -2.674e-7 1.108823623
H -0.9404105497 -2.674e-7 1.1088236889