5
charge=0, multiplicity=1, basis=AUG-CC-PVQZ, multipole_field={'x': 0.04157639517257122, 'y': -0.027774149187144284, 'z': -1.1766262661862616e-06}, AUX_BASIS_CORR=rimp2-def2-QZVPPD, SCF_ALGORITHM=GDM, xc_grid=000099000590, mem_total=3750, num_basis=332, num_pairs=55932, num_threads=1
C -0.1661628671 -0.4002327096 -1.93033e-5
O -1.1249281949 0.2700300211 2.97104e-5
O 1.1689518712 0.0942505571 -1.46098e-5
H -0.1160567351 -1.5077551832 -2.3851e-6
H 1.0181503915 1.060308541 6.5879e-6