4
charge=0, multiplicity=1, basis=AUG-CC-PVQZ, multipole_field={'x': -2.270716575713598e-08, 'y': -1.0937500340603242e-08, 'z': -0.039999999999992056}, AUX_BASIS_CORR=rimp2-def2-QZVPPD, SCF_ALGORITHM=GDM, xc_grid=000099000590, mem_total=3750, num_basis=252, num_pairs=32426, num_threads=1
C 3.282e-7 -8.99405e-5 0.5361143248
O -1.0541e-6 2.94218e-5 -0.6987312507
H 0.9303667454 3.02644e-5 1.1161717072
H -0.9303660245 3.02674e-5 1.1161698987