5
charge=0, multiplicity=1, basis=AUG-CC-PVQZ, multipole_field={'x': 0.016630558069028488, 'y': -0.011109659674857712, 'z': -4.706505064745046e-07}, AUX_BASIS_CORR=rimp2-def2-QZVPPD, SCF_ALGORITHM=GDM, xc_grid=000099000590, mem_total=3750, num_basis=332, num_pairs=55932, num_threads=1
C -0.1429411218 -0.4006685662 -1.7257e-6
O -1.1230229314 0.267251256 7.7198e-6
O 1.1374627611 0.0920355886 -1.77533e-5
H -0.1158372771 -1.4977921346 3.8041e-6
H 1.024293035 1.0557750826 7.9551e-6