5
charge=0, multiplicity=1, basis=AUG-CC-PVQZ, multipole_field={'x': 0.009893048673756451, 'y': -0.001458625359121469, 'z': 2.0334079117676875e-08}, AUX_BASIS_CORR=rimp2-def2-QZVPPD, SCF_ALGORITHM=GDM, xc_grid=000099000590, mem_total=3750, num_basis=298, num_pairs=45166, num_threads=1
C 0.5920785848 -0.0325761616 1.6448e-6
N -0.6656816021 0.1507148611 -1.3672e-6
H 1.0814548839 -1.0115041457 -8.84e-7
H 1.2385627436 0.8442634995 -1.125e-7
H -1.1745412879 -0.7338306793 7.191e-7