7
charge=0, multiplicity=1, basis=AUG-CC-PVQZ, multipole_field={}, AUX_BASIS_CORR=rimp2-def2-QZVPPD, SCF_ALGORITHM=GDM, xc_grid=000099000590, mem_total=3750, num_basis=390, num_pairs=76993, num_threads=1
C -0.7084365392 -3.5615e-5 0.0175884686
N 0.750809916 -0.0001037689 -0.1251147626
H -1.0685653043 0.0006045191 1.0525867069
H -1.1143163476 -0.8791515225 -0.4831480103
H -1.1143510364 0.8784402599 -0.4842370411
H 1.144360718 -0.8091103029 0.33928801
H 1.1443862352 0.8092661599 0.3386328264