6
charge=0, multiplicity=1, basis=AUG-CC-PVQZ, multipole_field={'x': -0.01702559134192514, 'y': -0.010494247918119443, 'z': -3.013458546972152e-07}, AUX_BASIS_CORR=rimp2-def2-QZVPPD, SCF_ALGORITHM=GDM, xc_grid=000099000590, mem_total=3750, num_basis=378, num_pairs=72123, num_threads=1
C 0.1753739226 -0.3891467846 -2.35798e-5
O 1.1882509321 0.2465606737 8.2274e-6
N -1.0906440115 0.1628274911 7.38965e-5
H -1.9028598355 -0.4217545849 -1.71375e-5
H -1.1776174766 1.1658676059 -3.55268e-5
H 0.1497097037 -1.4973321725 -5.8798e-6