5
charge=0, multiplicity=1, basis=AUG-CC-PVQZ, multipole_field={'x': -2.5285457948555833e-08, 'y': 1.760064062851153e-08, 'z': 0.009999999999952543}, AUX_BASIS_CORR=rimp2-def2-QZVPPD, SCF_ALGORITHM=GDM, xc_grid=000099000590, mem_total=3750, num_basis=298, num_pairs=45183, num_threads=1
C -4.5928e-6 -3.1695e-6 0.6272560124
F 3.4465e-6 2.0388e-6 -0.7443010296
H 1.0319807482 3.2001e-6 0.9820810805
H -0.515992246 -0.8937314525 0.9820865992
H -0.515987356 0.893729383 0.9820839786