7
charge=0, multiplicity=2, basis=def2-QZVPPD, AUX_BASIS_CORR=rimp2-def2-QZVPPD, SCF_ALGORITHM=GDM, xc_grid=000099000590, mem_total=3750, num_basis=357, num_pairs=63508, num_threads=1
C  0.8996950000  1.1702160000  0.0000000000
H  0.8574360000  2.2481530000  0.0000000000
H  1.8524960000  0.6632390000  0.0000000000
C  -0.3111940000  0.3788900000  0.0000000000
H  -1.2618380000  0.9057700000  0.0000000000
O  -0.3111940000  -0.8194880000  0.7431080000
O  -0.3111940000  -0.8194880000  -0.7431080000