5
charge=0, multiplicity=2, basis=def2-QZVPPD, AUX_BASIS_CORR=rimp2-def2-QZVPPD, SCF_ALGORITHM=GDM, xc_grid=000099000590, mem_total=3750, num_basis=294, num_pairs=42167, num_threads=1
H  -2.0035420000  0.0108810000  0.7627310000
O  -1.6195570000  -0.2471510000  -0.0866100000
O  -0.3940060000  0.5169590000  -0.0359760000
C  0.6441530000  -0.3390460000  0.0140110000
O  1.7808910000  -0.0168830000  0.0167370000