3
charge=0, multiplicity=2, basis=def2-QZVPPD, AUX_BASIS_CORR=rimp2-def2-QZVPPD, SCF_ALGORITHM=GDM, xc_grid=000099000590, mem_total=3750, num_basis=165, num_pairs=14006, num_threads=1
O  0.0553300000  -0.6070580000  0.0000000000
H  -0.8852830000  -0.8519740000  0.0000000000
O  0.0553300000  0.7135550000  0.0000000000