7
charge=0, multiplicity=2, basis=def2-QZVPPD, AUX_BASIS_CORR=rimp2-def2-QZVPPD, SCF_ALGORITHM=GDM, xc_grid=000099000590, mem_total=3750, num_basis=357, num_pairs=62573, num_threads=1
O  -0.6026270000  0.6986250000  0.0087760000
C  0.7510110000  0.4989120000  0.0065700000
C  1.4044350000  -0.6316990000  -0.0014240000
O  -1.2952780000  -0.5620040000  -0.1152210000
H  2.4241590000  -0.9636380000  -0.0244830000
H  -1.4057210000  -0.8086620000  0.8155290000
H  1.2321280000  1.4760510000  0.0296350000