7
charge=0, multiplicity=2, basis=def2-QZVPPD, AUX_BASIS_CORR=rimp2-def2-QZVPPD, SCF_ALGORITHM=GDM, xc_grid=000099000590, mem_total=3750, num_basis=357, num_pairs=63825, num_threads=1
C  -1.0477260000  0.5594120000  0.0098070000
C  0.4493130000  -0.1412240000  0.4036340000
H  -1.0283020000  1.2785510000  -0.8009070000
H  -1.6657830000  0.7542200000  0.8820830000
H  0.4426620000  -0.3899610000  1.4666430000
O  -0.7102730000  -0.7335710000  -0.2774050000
O  1.4405110000  0.2145780000  -0.2261530000