3
charge=0, multiplicity=1, basis=def2-QZVPPD, AUX_BASIS_CORR=rimp2-def2-QZVPPD, SCF_ALGORITHM=GDM, xc_grid=000099000590, mem_total=3750, num_basis=195, num_pairs=19388, num_threads=1
O  0.0000000000  0.0000000000  1.1647190000
C  0.0000000000  0.0000000000  0.0000000000
O  0.0000000000  0.0000000000  -1.1647190000