4
charge=0, multiplicity=3, basis=def2-QZVPPD, AUX_BASIS_CORR=rimp2-def2-QZVPPD, SCF_ALGORITHM=GDM, xc_grid=000099000590, mem_total=3750, num_basis=261, num_pairs=34263, num_threads=1
O  1.1684130000  0.8891710000  0.0000000000
C  0.0000000000  0.8887460000  0.0000000000
O  -0.8995880000  -0.1888450000  0.0000000000
O  -0.2688250000  -1.3668850000  0.0000000000