7
charge=0, multiplicity=2, basis=def2-QZVPPD, AUX_BASIS_CORR=rimp2-def2-QZVPPD, SCF_ALGORITHM=GDM, xc_grid=000099000590, mem_total=3750, num_basis=357, num_pairs=64076, num_threads=1
C  0.4774150000  0.8906710000  -0.1138250000
C  -0.9214760000  0.4163750000  0.0059210000
H  1.0148350000  1.6999620000  0.3612520000
H  -1.4458620000  0.6436540000  0.9406850000
O  0.9768920000  -0.3968470000  0.0077070000
H  -1.5909690000  0.5703940000  -0.8433870000
O  -0.3910970000  -0.9476890000  0.0159030000