4
charge=0, multiplicity=3, basis=def2-QZVPPD, AUX_BASIS_CORR=rimp2-def2-QZVPPD, SCF_ALGORITHM=GDM, xc_grid=000099000590, mem_total=3750, num_basis=261, num_pairs=33999, num_threads=1
O  1.5237230000  -0.2933030000  -0.1466060000
C  0.6606360000  0.2654570000  0.3662950000
O  -0.6054560000  0.5549700000  -0.1722480000
O  -1.4137440000  -0.4607600000  0.0441320000