5
charge=0, multiplicity=2, basis=def2-QZVPPD, AUX_BASIS_CORR=rimp2-def2-QZVPPD, SCF_ALGORITHM=GDM, xc_grid=000099000590, mem_total=3750, num_basis=294, num_pairs=41932, num_threads=1
H  2.2804510000  -0.3188900000  -0.1978550000
O  1.6318430000  0.3687570000  0.0165340000
O  0.3752000000  -0.5680720000  0.0215720000
C  -0.6326730000  0.1541780000  -0.0033560000
O  -1.8175950000  0.1235440000  -0.0108570000