4
charge=0, multiplicity=1, basis=def2-QZVPPD, AUX_BASIS_CORR=rimp2-def2-QZVPPD, SCF_ALGORITHM=GDM, xc_grid=000099000590, mem_total=3750, num_basis=261, num_pairs=34453, num_threads=1
O  0.0000000000  0.0000000000  1.3321730000
C  0.0000000000  0.0000000000  0.1291170000
O  0.0000000000  0.9713710000  -0.7145050000
O  0.0000000000  -0.9713710000  -0.7145050000