4
charge=0, multiplicity=3, basis=def2-QZVPPD, AUX_BASIS_CORR=rimp2-def2-QZVPPD, SCF_ALGORITHM=GDM, xc_grid=000099000590, mem_total=3750, num_basis=261, num_pairs=33528, num_threads=1
O  -0.3186250000  1.7132540000  0.0000000000
C  0.0000000000  0.5750160000  0.0000000000
O  -0.4426350000  -0.5928490000  0.0000000000
O  0.7612600000  -1.5516670000  0.0000000000