4
charge=0, multiplicity=3, basis=def2-QZVPPD, AUX_BASIS_CORR=rimp2-def2-QZVPPD, SCF_ALGORITHM=GDM, xc_grid=000200000974, mem_total=3750, num_basis=261, num_pairs=34458, num_threads=1
O  0.0000000000  0.0000000000  1.3271240000
C  0.0000000000  0.0000000000  -0.0188590000
O  0.0000000000  1.0680550000  -0.6564900000
O  0.0000000000  -1.0680550000  -0.6564900000