7
charge=0, multiplicity=2, basis=def2-QZVPPD, AUX_BASIS_CORR=rimp2-def2-QZVPPD, SCF_ALGORITHM=GDM, xc_grid=000099000590, mem_total=3750, num_basis=357, num_pairs=63915, num_threads=1
C  0.9608250000  0.5899550000  -0.0098530000
H  1.5894440000  0.8720620000  0.8322390000
H  0.9175600000  1.2644020000  -0.8585400000
C  -0.4080870000  -0.1078570000  0.4200150000
H  -0.4262520000  -0.3603240000  1.4809560000
O  0.7592580000  -0.7443310000  -0.2526710000
O  -1.4339050000  0.1607400000  -0.2367820000