5
charge=0, multiplicity=2, basis=def2-QZVPPD, AUX_BASIS_CORR=rimp2-def2-QZVPPD, SCF_ALGORITHM=GDM, xc_grid=000099000590, mem_total=3750, num_basis=294, num_pairs=41704, num_threads=1
H  -1.9849860000  -0.3939050000  0.7853550000
O  -1.7234050000  -0.2061330000  -0.1273150000
O  -0.5711400000  0.5228390000  0.0299600000
C  0.8766360000  -0.4625180000  0.0078090000
O  1.8851910000  0.0794200000  -0.0066700000