4
charge=0, multiplicity=3, basis=def2-QZVPPD, AUX_BASIS_CORR=rimp2-def2-QZVPPD, SCF_ALGORITHM=GDM, xc_grid=000099000590, mem_total=3750, num_basis=261, num_pairs=33524, num_threads=1
O  -1.1299580000  -1.3224990000  0.0000000000
C  -0.0955000000  -0.8028950000  0.0000000000
O  0.0000000000  0.7346420000  0.0000000000
O  1.2015830000  1.1900280000  0.0000000000