7
charge=0, multiplicity=2, basis=def2-QZVPPD, AUX_BASIS_CORR=rimp2-def2-QZVPPD, SCF_ALGORITHM=GDM, xc_grid=000099000590, mem_total=3750, num_basis=357, num_pairs=63416, num_threads=1
C  0.3436280000  -0.3059090000  0.4181120000
C  1.4563990000  0.1880500000  -0.1888800000
H  1.4404160000  0.4037780000  -1.2464750000
H  2.3576120000  0.3694530000  0.3774820000
H  0.2949710000  -0.5715800000  1.4658700000
O  -0.7599430000  -0.6362870000  -0.3333110000
O  -1.1017030000  0.6994750000  0.0867770000