4
charge=0, multiplicity=1, basis=def2-QZVPPD, AUX_BASIS_CORR=rimp2-def2-QZVPPD, SCF_ALGORITHM=GDM, xc_grid=000099000590, mem_total=3750, num_basis=261, num_pairs=34427, num_threads=1
O  0.0000000000  0.0000000000  1.4298030000
C  0.0000000000  0.0000000000  0.2558290000
O  0.0000000000  0.7985670000  -0.8108370000
O  0.0000000000  -0.7985670000  -0.8108370000