7
charge=0, multiplicity=2, basis=def2-QZVPPD, AUX_BASIS_CORR=rimp2-def2-QZVPPD, SCF_ALGORITHM=GDM, xc_grid=000099000590, mem_total=3750, num_basis=357, num_pairs=63168, num_threads=1
O  -1.7271530000  0.1011740000  -0.1888890000
C  -0.6819430000  -0.3516540000  0.1662620000
C  0.6368680000  0.4742640000  0.1509580000
O  1.6765900000  -0.2861680000  -0.2175330000
H  -0.5507710000  -1.3862760000  0.5308010000
H  0.7364200000  0.7247910000  1.2290000000
H  0.4893090000  1.4057690000  -0.4117440000