12
charge=1, multiplicity=2, basis=GEN, AUX_BASIS_CORR=rimp2-def2-QZVPPD, SCF_ALGORITHM=GDM, xc_grid=000250000974, mem_total=7500, ecp=GEN, num_basis=712, num_pairs=230355, num_threads=2
I  0.0000000000  0.0000000000  1.5046110000
C  0.0000000000  0.0000000000  -0.5092020000
C  0.0000000000  1.2375870000  -1.1997260000
C  0.0000000000  -1.2375870000  -1.1997260000
C  0.0000000000  1.2261390000  -2.5718690000
H  0.0000000000  2.1676550000  -0.6475980000
C  0.0000000000  -1.2261390000  -2.5718690000
H  0.0000000000  -2.1676550000  -0.6475980000
C  0.0000000000  0.0000000000  -3.2572200000
H  0.0000000000  2.1547020000  -3.1257750000
H  0.0000000000  -2.1547020000  -3.1257750000
H  0.0000000000  0.0000000000  -4.3399800000