11
charge=0, multiplicity=1, basis=GEN, AUX_BASIS_CORR=rimp2-def2-QZVPPD, SCF_ALGORITHM=GDM, xc_grid=000250000974, mem_total=7500, ecp=GEN, num_basis=651, num_pairs=194124, num_threads=2
Sn  0.0000000000  0.0000000000  0.2783450000
C  0.0000000000  1.8485100000  1.3030580000
H  0.0000000000  2.6457230000  0.5630400000
H  -0.8912870000  1.9239990000  1.9229960000
H  0.8912870000  1.9239990000  1.9229960000
C  0.0000000000  -1.8485100000  1.3030580000
H  -0.8912870000  -1.9239990000  1.9229960000
H  0.0000000000  -2.6457230000  0.5630400000
H  0.8912870000  -1.9239990000  1.9229960000
Cl  1.8544800000  0.0000000000  -1.1285890000
Cl  -1.8544800000  0.0000000000  -1.1285890000