3
charge=0, multiplicity=1, basis=GEN, AUX_BASIS_CORR=rimp2-def2-QZVPPD, SCF_ALGORITHM=GDM, xc_grid=000250000974, mem_total=3750, ecp=GEN, num_basis=268, num_pairs=36500, num_threads=1
O  0.0150300000  1.6873100000  0.0000000000
H  -0.9168590000  1.9344710000  0.0000000000
I  0.0150300000  -0.2911880000  0.0000000000