14
charge=0, multiplicity=1, basis=GEN, AUX_BASIS_CORR=rimp2-def2-QZVPPD, SCF_ALGORITHM=GDM, xc_grid=000250000974, mem_total=7500, ecp=GEN, num_basis=688, num_pairs=215769, num_threads=2
Sn  0.0000000000  0.0000000000  0.2386700000
C  0.0000000000  2.0170450000  -0.4715680000
H  0.8850730000  2.5448670000  -0.1182120000
H  -0.8850730000  2.5448670000  -0.1182120000
H  0.0000000000  2.0264040000  -1.5613390000
C  -1.7468120000  -1.0085230000  -0.4715680000
H  -2.6464560000  -0.5059380000  -0.1182120000
H  -1.7613830000  -2.0389290000  -0.1182120000
H  -1.7549170000  -1.0132020000  -1.5613390000
C  1.7468120000  -1.0085230000  -0.4715680000
H  1.7549170000  -1.0132020000  -1.5613390000
H  1.7613830000  -2.0389290000  -0.1182120000
H  2.6464560000  -0.5059380000  -0.1182120000
H  0.0000000000  0.0000000000  1.9480030000