5
charge=0, multiplicity=1, basis=GEN, AUX_BASIS_CORR=rimp2-def2-QZVPPD, SCF_ALGORITHM=GDM, xc_grid=000250000974, mem_total=3750, ecp=GEN, num_basis=439, num_pairs=92409, num_threads=1
Sn  0.0000000000  0.0000000000  0.4048560000
H  0.0000000000  0.0000000000  2.0859960000
Cl  0.0000000000  2.1326530000  -0.4378200000
Cl  -1.8469320000  -1.0663270000  -0.4378200000
Cl  1.8469320000  -1.0663270000  -0.4378200000