5
charge=0, multiplicity=1, basis=GEN, AUX_BASIS_CORR=rimp2-def2-QZVPPD, SCF_ALGORITHM=GDM, xc_grid=000250000974, mem_total=3750, ecp=GEN, num_basis=430, num_pairs=88579, num_threads=1
I  0.0000000000  0.0000000000  0.9649090000
C  0.0000000000  0.0000000000  -1.1696100000
F  0.0000000000  1.2428960000  -1.6341670000
F  -1.0763800000  -0.6214480000  -1.6341670000
F  1.0763800000  -0.6214480000  -1.6341670000