5
charge=0, multiplicity=1, basis=GEN, AUX_BASIS_CORR=rimp2-def2-QZVPPD, SCF_ALGORITHM=GDM, xc_grid=000250000974, mem_total=3750, ecp=GEN, num_basis=400, num_pairs=77079, num_threads=1
Sn  0.0000000000  0.0000000000  0.2412470000
H  0.0000000000  0.0000000000  1.9131290000
F  0.0000000000  1.7283620000  -0.5176110000
F  1.4968050000  -0.8641810000  -0.5176110000
F  -1.4968050000  -0.8641810000  -0.5176110000