9
charge=0, multiplicity=1, basis=GEN, AUX_BASIS_CORR=rimp2-def2-QZVPPD, SCF_ALGORITHM=GDM, xc_grid=000250000974, mem_total=3750, ecp=GEN, num_basis=526, num_pairs=130822, num_threads=1
I  0.0000000000  1.0106310000  0.0000000000
C  -0.6525980000  -1.0176560000  0.0000000000
H  -1.2606100000  -1.1495290000  0.8898130000
H  -1.2606100000  -1.1495290000  -0.8898130000
C  0.5413230000  -1.9424430000  0.0000000000
H  1.1546180000  -1.7578350000  -0.8867660000
H  1.1546180000  -1.7578350000  0.8867660000
O  0.0165150000  -3.2630170000  0.0000000000
H  0.7475080000  -3.8839860000  0.0000000000