11
charge=0, multiplicity=1, basis=GEN, AUX_BASIS_CORR=rimp2-def2-QZVPPD, SCF_ALGORITHM=GDM, xc_grid=000250000974, mem_total=7500, ecp=GEN, num_basis=689, num_pairs=209688, num_threads=2
Sn  0.0000000000  0.0000000000  0.6054660000
C  0.0000000000  1.8377990000  1.6554680000
H  0.0000000000  2.6458740000  0.9274270000
H  -0.8919250000  1.9025740000  2.2759790000
H  0.8919250000  1.9025740000  2.2759790000
C  0.0000000000  -1.8377990000  1.6554680000
H  -0.8919250000  -1.9025740000  2.2759790000
H  0.0000000000  -2.6458740000  0.9274270000
H  0.8919250000  -1.9025740000  2.2759790000
Br  1.9818970000  0.0000000000  -0.8728240000
Br  -1.9818970000  0.0000000000  -0.8728240000