14
charge=0, multiplicity=1, basis=GEN, AUX_BASIS_CORR=rimp2-def2-QZVPPD, SCF_ALGORITHM=GDM, xc_grid=000250000974, mem_total=7500, ecp=GEN, num_basis=753, num_pairs=250495, num_threads=2
Sn  0.0000000000  0.0000000000  0.6390970000
C  0.0000000000  2.0539370000  1.1937090000
H  -0.8864280000  2.5394720000  0.7895570000
H  0.8864280000  2.5394720000  0.7895570000
H  0.0000000000  2.1533920000  2.2790270000
C  1.7787620000  -1.0269690000  1.1937090000
H  2.6424610000  -0.5020670000  0.7895570000
H  1.7560330000  -2.0374050000  0.7895570000
H  1.8648920000  -1.0766960000  2.2790270000
C  -1.7787620000  -1.0269690000  1.1937090000
H  -1.8648920000  -1.0766960000  2.2790270000
H  -1.7560330000  -2.0374050000  0.7895570000
H  -2.6424610000  -0.5020670000  0.7895570000
Br  0.0000000000  0.0000000000  -1.8576000000