14
charge=0, multiplicity=1, basis=GEN, AUX_BASIS_CORR=rimp2-def2-QZVPPD, SCF_ALGORITHM=GDM, xc_grid=000250000974, mem_total=15000, ecp=GEN, num_basis=824, num_pairs=296946, num_threads=4
Sn  0.0000000000  0.0000000000  -0.9692520000
C  0.0000000000  2.0487850000  -1.5509770000
H  0.8864230000  2.5405790000  -1.1545050000
H  -0.8864230000  2.5405790000  -1.1545050000
H  0.0000000000  2.1305930000  -2.6379990000
C  -1.7743000000  -1.0243930000  -1.5509770000
H  -2.6434180000  -0.5026250000  -1.1545050000
H  -1.7569950000  -2.0379540000  -1.1545050000
H  -1.8451480000  -1.0652970000  -2.6379990000
C  1.7743000000  -1.0243930000  -1.5509770000
H  1.8451480000  -1.0652970000  -2.6379990000
H  1.7569950000  -2.0379540000  -1.1545050000
H  2.6434180000  -0.5026250000  -1.1545050000
I  0.0000000000  0.0000000000  1.7211550000