8
charge=0, multiplicity=1, basis=GEN, AUX_BASIS_CORR=rimp2-def2-QZVPPD, SCF_ALGORITHM=GDM, xc_grid=000250000974, mem_total=3750, ecp=GEN, num_basis=460, num_pairs=103061, num_threads=1
I  0.0000000000  0.6323050000  0.0000000000
C  -0.6096330000  -1.4210790000  0.0000000000
H  -1.2277520000  -1.5313290000  0.8862100000
H  -1.2277520000  -1.5313290000  -0.8862100000
C  0.5804140000  -2.3547500000  0.0000000000
H  1.2002250000  -2.2022570000  0.8824140000
H  0.2303660000  -3.3900420000  0.0000000000
H  1.2002250000  -2.2022570000  -0.8824140000