5
charge=1, multiplicity=2, basis=GEN, AUX_BASIS_CORR=rimp2-def2-QZVPPD, SCF_ALGORITHM=GDM, xc_grid=000250000974, mem_total=3750, ecp=GEN, num_basis=331, num_pairs=55114, num_threads=1
I  -0.3221320000  0.0000350000  -0.0003530000
C  1.7989000000  0.0007480000  -0.0062570000
H  2.1129670000  0.9376310000  -0.4536780000
H  2.0568840000  -0.0549010000  1.0534600000
H  2.1097500000  -0.8890780000  -0.5435380000