5
charge=0, multiplicity=1, basis=GEN, AUX_BASIS_CORR=rimp2-def2-QZVPPD, SCF_ALGORITHM=GDM, xc_grid=000250000974, mem_total=3750, ecp=GEN, num_basis=485, num_pairs=110716, num_threads=1
Sn  0.0000000000  0.0000000000  0.0000000000
Cl  1.3163430000  1.3163430000  1.3163430000
Cl  -1.3163430000  -1.3163430000  1.3163430000
Cl  1.3163430000  -1.3163430000  -1.3163430000
Cl  -1.3163430000  1.3163430000  -1.3163430000