11
charge=1, multiplicity=1, basis=def2-QZVPPD, AUX_BASIS_CORR=rimp2-def2-QZVPPD, SCF_ALGORITHM=GDM, xc_grid=000099000590, mem_total=3750, num_basis=483, num_pairs=109890, num_threads=1
C  0.7885872011  -0.4548853512  0.0000000000
C  2.0276160892  0.1170956383  0.0000000000
C  -0.3469312093  0.3595514510  0.0000000000
C  -1.7192864851  -0.1105052486  0.0000000000
H  0.6769558485  -1.5335332265  0.0000000000
H  2.1558092004  1.1952868399  0.0000000000
H  2.9298123490  -0.4853945254  0.0000000000
H  -0.1913884385  1.4380600612  0.0000000000
H  -1.8276303566  -1.1921859763  0.0000000000
H  -2.2467720994  0.3332551688  0.8604140852
H  -2.2467720994  0.3332551688  -0.8604140852