8
charge=0, multiplicity=1, basis=def2-QZVPPD, AUX_BASIS_CORR=rimp2-def2-QZVPPD, SCF_ALGORITHM=GDM, xc_grid=000099000590, mem_total=3750, num_basis=522, num_pairs=127657, num_threads=1
C  0.0000000000  0.0000000000  -0.7697291000
C  0.0000000000  0.0000000000  0.7697291000
F  1.0788739000  0.6228881000  -1.2232131000
F  0.0000000000  -1.2457763000  -1.2232131000
F  -1.0788739000  0.6228881000  -1.2232131000
F  1.0788739000  -0.6228881000  1.2232131000
F  0.0000000000  1.2457763000  1.2232131000
F  -1.0788739000  -0.6228881000  1.2232131000