4
charge=0, multiplicity=1, basis=def2-QZVPPD, AUX_BASIS_CORR=rimp2-def2-QZVPPD, SCF_ALGORITHM=GDM, xc_grid=000099000590, mem_total=3750, num_basis=162, num_pairs=13492, num_threads=1
N  0.0000000000  0.0000000000  0.2812366343
H  -0.4708398044  0.8155184634  -0.0937455448
H  -0.4708398044  -0.8155184634  -0.0937455448
H  0.9416796087  0.0000000000  -0.0937455448