9
charge=1, multiplicity=1, basis=def2-QZVPPD, AUX_BASIS_CORR=rimp2-def2-QZVPPD, SCF_ALGORITHM=GDM, xc_grid=000099000590, mem_total=3750, num_basis=383, num_pairs=69039, num_threads=1
Si  -0.0057029000  1.5911610000  -0.0004416000
Si  0.0057029000  -1.5911610000  -0.0004416000
H  1.4272938000  1.8456341000  -0.0575775000
H  -0.6735230000  1.8434090000  1.2683683000
H  -0.7720257000  1.8326085000  -1.2146930000
H  0.6735230000  -1.8434090000  1.2683683000
H  0.7720257000  -1.8326085000  -1.2146930000
H  -1.4272938000  -1.8456341000  -0.0575775000
H  0.0000000000  0.0000000000  0.0086873000