10
charge=0, multiplicity=1, basis=def2-QZVPPD, AUX_BASIS_CORR=rimp2-def2-QZVPPD, SCF_ALGORITHM=GDM, xc_grid=000099000590, mem_total=3750, num_basis=450, num_pairs=96091, num_threads=1
C  0.6100201819  -0.3959155294  0.0000000000
C  1.8427593552  0.1182673257  0.0000000000
C  -0.6100201819  0.3959155294  0.0000000000
C  -1.8427593552  -0.1182673257  0.0000000000
H  0.4833920441  -1.4760937783  0.0000000000
H  2.0103525424  1.1900896684  0.0000000000
H  2.7218077874  -0.5136311508  0.0000000000
H  -0.4833920441  1.4760937783  0.0000000000
H  -2.0103525424  -1.1900896684  0.0000000000
H  -2.7218077874  0.5136311508  0.0000000000