15
charge=1, multiplicity=1, basis=def2-QZVPPD, AUX_BASIS_CORR=rimp2-def2-QZVPPD, SCF_ALGORITHM=GDM, xc_grid=000099000590, mem_total=7500, num_basis=675, num_pairs=192814, num_threads=2
C  -2.9153722359  -0.1336026158  0.0000000000
C  -1.5479280746  0.3936516035  0.0000000000
C  -0.4022167029  -0.3650562298  0.0000000000
C  0.8521932952  0.2427665315  0.0000000000
C  2.0816821450  -0.4564997042  0.0000000000
C  3.2596544384  0.2114717660  0.0000000000
H  -3.4598458060  0.2638922959  -0.8675585649
H  -3.4598458060  0.2638922959  0.8675585649
H  -2.9637702936  -1.2205562086  0.0000000000
H  -1.4405558553  1.4771009661  0.0000000000
H  -0.4714913803  -1.4479950776  0.0000000000
H  0.8938793008  1.3300449158  0.0000000000
H  2.0674425363  -1.5410314363  0.0000000000
H  3.2989639740  1.2956573679  0.0000000000
H  4.2072104649  -0.3137364703  0.0000000000