19
charge=1, multiplicity=1, basis=def2-QZVPPD, mem_total=15000, AUX_BASIS_CORR=rimp2-def2-QZVPPD, SCF_ALGORITHM=GDM, xc_grid=000099000590, num_basis=867, num_pairs=286224, num_threads=4
C  -4.4907173106  -0.2846965174  0.0000000000
C  -3.3409982280  0.4221291764  0.0000000000
C  -2.0728170791  -0.2209986281  0.0000000000
C  -0.8613217082  0.4399317048  0.0000000000
C  0.3442237994  -0.2574434174  0.0000000000
C  1.6153368995  0.3435008176  0.0000000000
C  2.7546434492  -0.4079158862  0.0000000000
C  4.1280939591  0.1239323695  0.0000000000
H  -4.4912407509  -1.3692607506  0.0000000000
H  -5.4559841990  0.2058217336  0.0000000000
H  -3.3689546319  1.5067434110  0.0000000000
H  -2.0671614489  -1.3088236316  0.0000000000
H  -0.8453044011  1.5251323284  0.0000000000
H  0.3021542520  -1.3445582785  0.0000000000
H  1.6841721794  1.4268192711  0.0000000000
H  2.6515139567  -1.4915014659  0.0000000000
H  4.1658621523  1.2119197452  0.0000000000
H  4.6742495552  -0.2603659910  0.8704726651
H  4.6742495552  -0.2603659910  -0.8704726651