14
charge=0, multiplicity=1, basis=def2-QZVPPD, AUX_BASIS_CORR=rimp2-def2-QZVPPD, SCF_ALGORITHM=GDM, xc_grid=000099000590, mem_total=3750, num_basis=642, num_pairs=176320, num_threads=1
C  1.8647033667  -0.4118946291  0.0000000000
C  3.0669333075  0.1759696626  0.0000000000
C  0.6039327253  0.2981449510  0.0000000000
C  -0.6039327253  -0.2981449510  0.0000000000
C  -1.8647033667  0.4118946291  0.0000000000
C  -3.0669333075  -0.1759696626  0.0000000000
H  1.8074592509  -1.4979950164  0.0000000000
H  3.1708031373  1.2557068148  0.0000000000
H  3.9813254646  -0.4032578129  0.0000000000
H  0.6549419769  1.3851481895  0.0000000000
H  -0.6549419769  -1.3851481895  0.0000000000
H  -1.8074592509  1.4979950164  0.0000000000
H  -3.1708031373  -1.2557068148  0.0000000000
H  -3.9813254646  0.4032578129  0.0000000000