8
charge=0, multiplicity=1, basis=def2-QZVPPD, AUX_BASIS_CORR=rimp2-def2-QZVPPD, SCF_ALGORITHM=GDM, xc_grid=000099000590, mem_total=3750, num_basis=350, num_pairs=58369, num_threads=1
Si  0.0000000000  0.0000000000  1.1609054000
Si  0.0000000000  0.0000000000  -1.1609054000
H  1.1970290000  0.6911050000  1.6779620000
H  0.0000000000  -1.3822101000  1.6779620000
H  -1.1970290000  0.6911050000  1.6779620000
H  1.1970290000  -0.6911050000  -1.6779620000
H  0.0000000000  1.3822101000  -1.6779620000
H  -1.1970290000  -0.6911050000  -1.6779620000