5
charge=1, multiplicity=1, basis=def2-QZVPPD, AUX_BASIS_CORR=rimp2-def2-QZVPPD, SCF_ALGORITHM=GDM, xc_grid=000099000590, mem_total=3750, num_basis=241, num_pairs=29447, num_threads=1
S  0.3082691000  -1.1248975000  0.0000000000
C  0.2332779000  0.4820209000  0.0000000000
H  -0.7041702000  1.0234675000  0.0000000000
H  1.1670468000  1.0314181000  0.0000000000
H  -1.0044235000  -1.4120089000  0.0000000000