8
charge=0, multiplicity=1, basis=def2-QZVPPD, AUX_BASIS_CORR=rimp2-def2-QZVPPD, SCF_ALGORITHM=GDM, xc_grid=000099000590, mem_total=3750, num_basis=390, num_pairs=75130, num_threads=1
C  -0.8831710000  -0.3953046000  0.0224696000
C  0.3686256000  0.4103031000  -0.1944490000
O  0.4575694000  1.3809461000  -0.8928870000
O  1.4060740000  -0.0807237000  0.4942098000
H  -1.1388570000  -0.3790546000  1.0808175000
H  -0.7005835000  -1.4280351000  -0.2699744000
H  -1.6972882000  0.0218323000  -0.5643095000
H  2.1876306000  0.4700365000  0.3241231000