4
charge=0, multiplicity=1, basis=def2-QZVPPD, AUX_BASIS_CORR=rimp2-def2-QZVPPD, SCF_ALGORITHM=GDM, xc_grid=000099000590, mem_total=3750, num_basis=208, num_pairs=22052, num_threads=1
S  0.0000000000  0.0000000000  1.4943318000
C  0.0000000000  0.0000000000  -0.1100613000
H  -0.9184864000  0.0000000000  -0.6921352000
H  0.9184864000  0.0000000000  -0.6921352000