6
charge=1, multiplicity=1, basis=def2-QZVPPD, AUX_BASIS_CORR=rimp2-def2-QZVPPD, SCF_ALGORITHM=GDM, xc_grid=000099000590, mem_total=3750, num_basis=241, num_pairs=29572, num_threads=1
Si  0.5476832273  0.0968872897  0.0000000000
H  -1.2001354923  -0.6214312307  0.0000000000
H  0.3553761341  1.5518770173  0.0000000000
H  0.8165148857  -0.5859895751  1.2683124421
H  0.8165148857  -0.5859895751  -1.2683124421
H  -1.3359536406  0.1446460740  0.0000000000