16
charge=1, multiplicity=1, basis=def2-QZVPPD, AUX_BASIS_CORR=rimp2-def2-QZVPPD, SCF_ALGORITHM=GDM, xc_grid=000099000590, mem_total=7500, num_basis=804, num_pairs=285245, num_threads=2
N  -0.4244606000  1.9040409000  0.0000000000
N  1.5727761000  0.7484809000  0.0000000000
C  -0.4729203000  -0.4729499000  0.0000000000
C  0.9339066000  -0.4234257000  0.0000000000
C  -1.0934336000  0.7430950000  0.0000000000
C  0.9593943000  2.0078396000  0.0000000000
C  -1.2104410000  -1.7776776000  0.0000000000
O  1.7131935000  -1.4567240000  0.0000000000
O  1.5638761000  3.0280132000  0.0000000000
H  -0.9283216000  2.7839341000  0.0000000000
H  2.5909886000  0.7587326000  0.0000000000
H  -2.1742321000  0.8202918000  0.0000000000
H  -0.9942529000  -2.3753386000  -0.8887400000
H  -0.9942529000  -2.3753386000  0.8887400000
H  -2.2864804000  -1.6106914000  0.0000000000
H  1.2446601000  -2.3022822000  0.0000000000