16
charge=1, multiplicity=1, basis=def2-QZVPPD, AUX_BASIS_CORR=rimp2-def2-QZVPPD, SCF_ALGORITHM=GDM, xc_grid=000099000590, mem_total=15000, num_basis=828, num_pairs=300654, num_threads=4
N  -1.9787447000  0.3880618000  0.0000000000
N  -0.0975121000  1.7864422000  0.0000000000
N  1.1914112000  -1.5015392000  0.0000000000
N  2.0448687000  0.5528083000  0.0000000000
N  -1.8126349000  -1.8975884000  0.0000000000
C  2.2801792000  -0.8070499000  0.0000000000
C  0.7067651000  0.6963550000  0.0000000000
C  -1.2150346000  -0.7303388000  0.0000000000
C  -1.4314404000  1.5558129000  0.0000000000
C  0.1882086000  -0.5806260000  0.0000000000
H  2.7514732000  1.2743611000  0.0000000000
H  -2.8205323000  -1.9491814000  0.0000000000
H  -1.2801856000  -2.7549157000  0.0000000000
H  -2.0646131000  2.4353008000  0.0000000000
H  3.2849916000  -1.2032739000  0.0000000000
H  0.2528000000  2.7353712000  0.0000000000