16
charge=1, multiplicity=1, basis=def2-QZVPPD, AUX_BASIS_CORR=rimp2-def2-QZVPPD, SCF_ALGORITHM=GDM, xc_grid=000099000590, mem_total=15000, num_basis=828, num_pairs=301023, num_threads=4
N  -2.0046163000  0.6861041000  0.0000000000
N  -0.0968130000  2.1038790000  0.0000000000
N  1.2034707000  -1.1411147000  0.0000000000
N  1.9750972000  0.8740492000  0.0000000000
N  -1.9641510000  -1.5978842000  0.0000000000
C  2.3025314000  -0.4090569000  0.0000000000
C  0.5985601000  0.9924758000  0.0000000000
C  -1.3035570000  -0.4412096000  0.0000000000
C  -1.4016462000  1.8656012000  0.0000000000
C  0.1024794000  -0.2995120000  0.0000000000
H  2.6239007000  1.6523305000  0.0000000000
H  -2.9720449000  -1.5660329000  0.0000000000
H  -1.5271569000  -2.5011982000  0.0000000000
H  -2.0523590000  2.7320767000  0.0000000000
H  3.3087191000  -0.7987785000  0.0000000000
H  1.2075855000  -2.1517294000  0.0000000000