7
charge=1, multiplicity=1, basis=def2-QZVPPD, AUX_BASIS_CORR=rimp2-def2-QZVPPD, SCF_ALGORITHM=GDM, xc_grid=000099000590, mem_total=3750, num_basis=475, num_pairs=108641, num_threads=1
C  0.0000000000  -0.7086540000  0.0996485000
C  0.0000000000  0.7086540000  0.0996485000
Cl  -1.4459067000  -1.5704256000  0.2108608000
Cl  1.4459067000  -1.5704256000  0.2108608000
Cl  -1.4459067000  1.5704256000  0.2108608000
Cl  1.4459067000  1.5704256000  0.2108608000
H  0.0000000000  0.0000000000  -1.0427402000