9
charge=1, multiplicity=1, basis=def2-QZVPPD, AUX_BASIS_CORR=rimp2-def2-QZVPPD, SCF_ALGORITHM=GDM, xc_grid=000099000590, mem_total=3750, num_basis=489, num_pairs=115408, num_threads=1
C  -0.2968880000  -0.7162993000  -0.3283118000
H  0.3166179000  -1.4795679000  -0.8093544000
F  -0.2934503000  -1.0497191000  1.0972460000
F  -1.5431000000  -0.7252533000  -0.7136418000
C  0.2968880000  0.7162993000  -0.3283118000
H  -0.3166179000  1.4795679000  -0.8093544000
F  0.2934503000  1.0497191000  1.0972460000
F  1.5431000000  0.7252533000  -0.7136418000
H  0.0000000000  0.0000000000  1.5081239000