18
charge=1, multiplicity=1, basis=def2-QZVPPD, AUX_BASIS_CORR=rimp2-def2-QZVPPD, SCF_ALGORITHM=GDM, xc_grid=000099000590, mem_total=15000, num_basis=900, num_pairs=338147, num_threads=4
C  0.0000000000  0.0000000000  -1.9113947000
C  1.2214572000  0.0000000000  -1.1893726000
C  1.2193799000  0.0000000000  0.1696302000
C  0.0000000000  0.0000000000  0.8937233000
C  -1.2193799000  0.0000000000  0.1696302000
C  -1.2214572000  0.0000000000  -1.1893726000
N  0.0000000000  0.0000000000  -3.2397138000
H  0.8565304000  0.0000000000  -3.7683901000
H  -0.8565304000  0.0000000000  -3.7683901000
H  2.1622549000  0.0000000000  -1.7263730000
H  2.1685059000  0.0000000000  0.6899102000
C  0.0000000000  0.0000000000  2.2904331000
H  -2.1685059000  0.0000000000  0.6899102000
H  -2.1622549000  0.0000000000  -1.7263730000
O  -1.1367639000  0.0000000000  2.9216367000
O  1.1367639000  0.0000000000  2.9216367000
H  -1.1049796000  0.0000000000  3.8864347000
H  1.1049796000  0.0000000000  3.8864347000