18
charge=1, multiplicity=1, basis=def2-QZVPPD, AUX_BASIS_CORR=rimp2-def2-QZVPPD, SCF_ALGORITHM=GDM, xc_grid=000099000590, mem_total=15000, num_basis=900, num_pairs=339095, num_threads=4
C  -1.4508558000  0.0170272000  -0.0607021000
C  -0.7886254000  0.0127634000  -1.2731743000
C  0.5948780000  0.0019883000  -1.2618499000
C  1.2871627000  -0.0055546000  -0.0559737000
C  0.5933158000  -0.0014297000  1.1488289000
C  -0.7926743000  0.0104409000  1.1525117000
N  -2.9283679000  0.0031964000  -0.0637027000
H  -3.3098309000  0.4843888000  -0.8835067000
H  -3.3142174000  0.4730859000  0.7604851000
H  -1.3209636000  0.0184931000  -2.2183395000
H  1.1443978000  0.0035820000  -2.1948665000
C  2.7827191000  -0.0120503000  -0.1170854000
H  1.1225939000  -0.0024606000  2.0922256000
H  -1.3287459000  0.0145575000  2.0955626000
O  3.3319068000  -0.0297004000  1.0875071000
O  3.3860423000  -0.0034777000  -1.1477820000
H  4.2953837000  -0.0337549000  1.0113788000
H  -3.3041188000  -0.9510952000  -0.0715171000