27
charge=1, multiplicity=1, basis=def2-QZVPPD, AUX_BASIS_CORR=rimp2-def2-QZVPPD, SCF_ALGORITHM=GDM, xc_grid=000099000590, mem_total=30000, num_basis=1266, num_pairs=656239, num_threads=8
C  -2.7655785000  -0.8544289000  -0.1509134000
C  -1.4600635000  -0.7616008000  0.6363865000
C  -0.2549413000  -0.6354449000  -0.2877436000
C  1.0927542000  -0.2676505000  0.3373495000
C  1.2181320000  1.2692585000  0.1692286000
O  0.7151667000  2.0226138000  1.2134087000
C  0.5263827000  1.5191921000  -1.1652591000
O  -2.8786858000  0.3458888000  -0.9141506000
O  2.0467445000  -0.9402442000  -0.4196782000
O  -1.4707498000  0.3297235000  1.5158100000
O  -0.4836993000  0.4484684000  -1.2673501000
C  3.3249068000  -1.0394212000  0.1720768000
H  -2.7518904000  -1.7401575000  -0.7955258000
H  -3.6148555000  -0.9508832000  0.5328147000
H  -1.3269111000  -1.7157728000  1.1668713000
H  -0.1578706000  -1.5532410000  -0.8719494000
H  1.1342604000  -0.5444552000  1.4020877000
H  2.2734693000  1.5371805000  0.0670726000
H  -0.1260006000  1.6690646000  1.5229890000
H  0.0113133000  2.4771965000  -1.2189962000
H  1.1833643000  1.3878381000  -2.0224623000
H  -3.6539669000  0.3457610000  -1.4851100000
H  -2.1212781000  0.2170517000  2.2152931000
H  3.8019785000  -0.0639608000  0.3146195000
H  3.2794508000  -1.5478205000  1.1414976000
H  3.9440308000  -1.6270086000  -0.5014322000
H  -1.4854628000  0.6728529000  -1.3069347000