7
charge=1, multiplicity=1, basis=def2-QZVPPD, AUX_BASIS_CORR=rimp2-def2-QZVPPD, SCF_ALGORITHM=GDM, xc_grid=000099000590, mem_total=3750, num_basis=475, num_pairs=107619, num_threads=1
C  0.6667106000  0.0000000000  0.3702088000
C  -0.6667106000  0.0000000000  0.3702088000
Cl  1.6541389000  0.0000000000  1.7151679000
Cl  1.4734245000  0.0000000000  -1.2029026000
Cl  -1.6541389000  0.0000000000  1.7151679000
Cl  -1.4734245000  0.0000000000  -1.2029026000
H  0.0000000000  0.0000000000  -1.7649483000