16
charge=1, multiplicity=1, basis=def2-QZVPPD, AUX_BASIS_CORR=rimp2-def2-QZVPPD, SCF_ALGORITHM=GDM, xc_grid=000099000590, mem_total=7500, num_basis=804, num_pairs=282580, num_threads=2
N  -0.4070455000  1.5374147000  0.0000000000
N  1.5730851000  0.4189613000  0.0000000000
C  -0.4933066000  -0.8535897000  0.0000000000
C  0.9718402000  -0.8800021000  0.0000000000
C  -1.1115784000  0.3313139000  0.0000000000
C  0.9153720000  1.5626318000  0.0000000000
C  -1.2073060000  -2.1604088000  0.0000000000
O  1.6685721000  -1.8430528000  0.0000000000
O  1.6285879000  2.6442530000  0.0000000000
H  -0.9359663000  2.3996266000  0.0000000000
H  2.5911017000  0.4423864000  0.0000000000
H  -2.1873117000  0.4397847000  0.0000000000
H  -0.9340607000  -2.7485391000  -0.8769635000
H  -0.9340607000  -2.7485391000  0.8769635000
H  -2.2872943000  -2.0249759000  0.0000000000
H  1.1493711000  3.4827351000  0.0000000000