27
charge=1, multiplicity=1, basis=def2-QZVPPD, AUX_BASIS_CORR=rimp2-def2-QZVPPD, SCF_ALGORITHM=GDM, xc_grid=000099000590, mem_total=30000, num_basis=1266, num_pairs=659448, num_threads=8
C  -2.7720676000  -0.8551911000  -0.0706160000
C  -1.4169756000  -0.8900428000  0.6363119000
C  -0.2734438000  -0.6586145000  -0.3479961000
C  1.0937048000  -0.2621228000  0.2223249000
C  1.1542629000  1.2779243000  0.0627619000
O  0.5888416000  1.9986596000  1.1024688000
C  0.4359991000  1.4883623000  -1.2589552000
O  -2.9541012000  0.4224194000  -0.6941674000
O  2.0339354000  -0.8952411000  -0.5818334000
O  -1.3789429000  0.0886658000  1.6489758000
O  -0.6146171000  0.4565574000  -1.2587012000
C  3.3408016000  -0.9537727000  -0.0509044000
H  -2.8259001000  -1.6109659000  -0.8578416000
H  -3.5851612000  -1.0556774000  0.6313295000
H  -1.2615680000  -1.8986643000  1.0417854000
H  -0.1708381000  -1.5410949000  -0.9835921000
H  1.1927479000  -0.5514793000  1.2800150000
H  2.1942828000  1.6025919000  -0.0402234000
H  -0.1289501000  1.5122963000  1.5221669000
H  -0.0456633000  2.4603874000  -1.3545592000
H  1.0601371000  1.2851985000  -2.1274935000
H  -1.6156937000  0.7225876000  -1.1239886000
H  -3.3919150000  1.0455292000  -0.1040475000
H  3.7940293000  0.0362343000  0.0661333000
H  3.3567231000  -1.4594911000  0.9210141000
H  3.9452107000  -1.5253067000  -0.7511568000
H  -1.7548387000  -0.2397495000  2.4707888000