21
charge=1, multiplicity=1, basis=def2-QZVPPD, AUX_BASIS_CORR=rimp2-def2-QZVPPD, SCF_ALGORITHM=GDM, xc_grid=000099000590, mem_total=15000, num_basis=1029, num_pairs=450089, num_threads=4
N  1.2953631000  1.7080794000  -0.1786875000
C  1.5562579000  0.4426582000  0.4988580000
C  1.8578035000  -0.6217330000  -0.5460385000
O  2.0099445000  -1.8110621000  0.0175106000
H  1.4086260000  2.4849765000  0.4614951000
O  1.9446000000  -0.4026348000  -1.7178403000
H  -0.4232690000  1.4205347000  -0.7722535000
H  2.4257078000  0.4912502000  1.1700325000
C  0.3354281000  0.0486945000  1.3501276000
C  -0.8827570000  -0.1403936000  0.5113064000
H  0.1535577000  0.8375836000  2.0874442000
H  0.5381153000  -0.8595230000  1.9172807000
C  -1.8967570000  -1.0425249000  0.5363844000
N  -1.1455558000  0.7017110000  -0.5402079000
H  -2.0855061000  -1.8759860000  1.1924383000
H  -3.5878922000  -1.2000023000  -0.7412633000
C  -2.2583287000  0.3417575000  -1.1447325000
N  -2.7359318000  -0.7137521000  -0.4994870000
H  -2.7005970000  0.8120195000  -2.0081728000
H  1.9409289000  1.8495294000  -0.9478465000
H  2.2502617000  -2.4711827000  -0.6463480000