27
charge=1, multiplicity=1, basis=def2-QZVPPD, AUX_BASIS_CORR=rimp2-def2-QZVPPD, SCF_ALGORITHM=GDM, xc_grid=000099000590, mem_total=30000, num_basis=1257, num_pairs=617517, num_threads=8
N  2.9872465000  0.0494154000  1.4485538000
C  1.7369087000  -0.0255424000  0.7107834000
C  1.8409473000  -1.2105344000  -0.2563356000
O  3.0375165000  -1.6705709000  -0.4389787000
H  3.6230269000  -1.1594570000  0.1699097000
O  0.8778922000  -1.6866253000  -0.8220291000
H  2.9425535000  -0.4111891000  2.3472866000
H  0.8789199000  -0.2189463000  1.3679995000
C  1.5076291000  1.2987333000  -0.0384643000
H  2.4298600000  1.5463200000  -0.5742220000
H  1.3837541000  2.0717636000  0.7273968000
C  0.3557886000  1.4167283000  -1.0373642000
H  0.5233011000  0.7906638000  -1.9173534000
H  0.3813624000  2.4433012000  -1.4096020000
C  -1.0549972000  1.1770122000  -0.5050865000
H  -1.1800475000  1.6746153000  0.4644179000
H  -1.7625941000  1.6333362000  -1.2053858000
N  -2.6150736000  -2.1059317000  -0.0669252000
H  -3.4949269000  -2.5601151000  0.1038172000
H  -1.8451260000  -2.6958728000  -0.3393926000
H  -0.5344437000  -0.8834422000  -0.5991922000
N  -1.3288373000  -0.2449139000  -0.3926156000
C  -2.4944774000  -0.7769015000  -0.0976716000
N  -3.5540912000  -0.0179928000  0.1829980000
H  -4.4510704000  -0.4163331000  0.3996366000
H  -3.4978702000  0.9857340000  0.1807942000
H  3.3068487000  0.9967452000  1.5970250000