12
charge=1, multiplicity=1, basis=def2-QZVPPD, AUX_BASIS_CORR=rimp2-def2-QZVPPD, SCF_ALGORITHM=GDM, xc_grid=000099000590, mem_total=7500, num_basis=719, num_pairs=227669, num_threads=2
O  -1.9727450000  1.0061952000  -0.4782640000
S  -1.4549507000  -0.3381686000  0.1148381000
O  -1.0459891000  -0.0846139000  1.4514215000
O  -2.1413137000  -1.4745944000  -0.3896087000
O  0.1059887000  -0.3890319000  -0.7106276000
S  1.8532506000  -0.0924611000  0.1857944000
O  1.4658279000  1.3087736000  0.7035500000
O  1.8540743000  -1.1084151000  1.1698477000
O  2.6317652000  0.0188499000  -0.9867071000
H  -2.5498291000  0.9073528000  -1.2581694000
H  1.1055948000  1.3131966000  1.6143987000
H  0.1483261000  -1.0670830000  -1.4164736000