39
charge=0, multiplicity=1, basis=def2-QZVPPD, AUX_BASIS_CORR=rimp2-def2-QZVPPD, SCF_ALGORITHM=GDM, xc_grid=000099000590, mem_total=120000, num_basis=1869, num_pairs=1013522, num_threads=32
H  -7.5540758500  0.6694902500  1.0662282200
C  -6.7373405600  1.0568849600  0.4577494000
H  -6.3850537000  2.0019683300  0.8846886800
H  -7.1059187000  1.2645786300  -0.5519123500
C  -5.6213803700  0.0216016700  0.4273429700
O  -5.6987748100  -1.0572334900  1.0047095400
N  -4.5243011600  0.3885145800  -0.2997858100
H  -4.4551009000  1.3031924200  -0.7271142800
C  -3.3362840200  -0.4447137000  -0.3985599100
H  -3.3610673600  -1.1251259300  0.4576332400
C  -3.3049518100  -1.2647284100  -1.6997874300
H  -3.2961835000  -0.5968873700  -2.5661040100
H  -2.4133475600  -1.8994949700  -1.7402771600
H  -4.1893606400  -1.9041316100  -1.7490955400
C  -2.1257348700  0.4931665100  -0.3310133900
O  -2.1002159800  1.5348166000  -0.9856017900
N  -1.1142086300  0.0963550500  0.4817616300
H  -1.1655369800  -0.7711449200  0.9985541000
C  0.1353590100  0.8248571400  0.5888515300
H  0.2081160600  1.4964589800  -0.2697630700
H  0.1585905100  1.4394906000  1.4996143900
C  1.2790193400  -0.1873453300  0.6689028800
O  1.1794679300  -1.1809480300  1.3866718300
N  2.3578451000  0.0747938000  -0.1054931700
H  2.4132274600  0.9130040000  -0.6707590700
C  3.5584725700  -0.7518671500  -0.0873617300
H  3.5469001500  -1.3006019700  0.8586282900
C  3.5866345200  -1.7470603400  -1.2575064700
H  3.5841838800  -1.2098537400  -2.2101638800
H  4.4839845400  -2.3721408900  -1.2156905400
H  2.7078448900  -2.3956569600  -1.2103473200
C  4.7536498200  0.2085057600  -0.1708077700
O  4.7522433200  1.1396474000  -0.9715470900
N  5.7816678200  -0.0341879000  0.6779620900
H  5.7102695700  -0.7946273600  1.3354671800
C  6.9830399100  0.7880825100  0.6647412300
H  6.7365366500  1.8355492500  0.8648201900
H  7.6678606000  0.4264285500  1.4332760900
H  7.4783204100  0.7395057000  -0.3103283000