39
charge=0, multiplicity=1, basis=def2-QZVPPD, AUX_BASIS_CORR=rimp2-def2-QZVPPD, SCF_ALGORITHM=GDM, xc_grid=000099000590, mem_total=120000, num_basis=1869, num_pairs=1035488, num_threads=32
H  6.3691937400  -1.9430038300  -1.2174212400
C  6.3999254200  -0.8816849100  -0.9592266200
H  6.3502670400  -0.2887308400  -1.8766520000
H  7.3564065400  -0.6939840400  -0.4650030100
C  5.2791438200  -0.5862192400  0.0245625800
O  5.1964562200  -1.1595943900  1.1043278300
N  4.3842965000  0.3687302500  -0.3778368600
H  4.4324536000  0.7476327200  -1.3133876700
C  3.2143579900  0.7304267800  0.4129104600
H  3.2570574500  0.0957594600  1.3009818900
C  3.2309806900  2.2094731000  0.8119636100
H  3.1822769600  2.8415088200  -0.0794289000
H  2.3698367500  2.4490073300  1.4438124700
H  4.1445680200  2.4378168400  1.3669011800
C  1.9717560700  0.4218690900  -0.4375753600
O  1.7574407200  1.0330800300  -1.4818895000
N  1.1790377500  -0.5852844500  0.0192772000
H  1.3849240300  -1.0285011400  0.9041989800
C  -0.0413801300  -0.9879732600  -0.6576341400
H  -0.1050195800  -0.3964411600  -1.5721426800
H  0.0028723000  -2.0513356500  -0.9215028500
C  -1.2349464400  -0.7911840300  0.2829755800
O  -1.3224944300  -1.4448402400  1.3194957400
N  -2.1206677600  0.1733642000  -0.0830012300
H  -2.0216768200  0.6424159300  -0.9722937700
C  -3.3144484500  0.4877005300  0.6989364300
H  -3.2867106800  -0.1904494400  1.5554582800
C  -3.3084051300  1.9455105400  1.1709765400
H  -3.3461363600  2.6180353400  0.3107804500
H  -4.1834206600  2.1483950200  1.7973166100
H  -2.4065986700  2.1512373900  1.7533856700
C  -4.5354320900  0.2211469500  -0.1968079000
O  -4.7308444500  0.9007906800  -1.1994260400
N  -5.3313625900  -0.8124579800  0.1892415900
H  -5.0574195800  -1.3535214400  0.9961089900
C  -6.4960954100  -1.2306867800  -0.5715192800
H  -6.3558602400  -2.2298090400  -1.0001893800
H  -7.3922103600  -1.2398667600  0.0577017300
H  -6.6317864700  -0.5134099600  -1.3812948900