37
charge=0, multiplicity=1, basis=def2-QZVPPD, AUX_BASIS_CORR=rimp2-def2-QZVPPD, SCF_ALGORITHM=GDM, xc_grid=000099000590, mem_total=120000, num_basis=1833, num_pairs=1138825, num_threads=32
O  3.1694326700  -1.4092163200  0.2464324500
C  4.2004327500  -0.9802162900  -0.2155675800
O  5.3614328400  -1.6692163400  -0.2195675800
H  5.1694328200  -2.5132164100  0.2154324500
C  4.3774327600  0.3707838100  -0.8785676300
H  4.6714327900  0.2097838000  -1.9145677100
H  5.1884328300  0.8907838500  -0.3745676000
N  3.1814326700  1.1597838700  -0.8075676300
H  2.3804326100  0.8607838500  -1.3575676700
C  2.8684326500  1.7297839200  0.3934324600
O  3.6694327100  1.8797839300  1.3054325300
C  1.4004325400  2.1127839400  0.5114324700
H  1.0394325100  2.5687839800  -0.4085676000
H  1.2844325300  2.8027840000  1.3414325300
N  0.6174324800  0.9187838500  0.7664324900
H  0.5174324700  0.5427838200  1.7004325600
C  0.3124324600  0.0577837900  -0.2185675800
O  0.5324324700  0.2747838000  -1.4155676800
C  -0.3105675900  -1.2532163100  0.2504324500
N  -0.6275676200  -1.2012163100  1.6754325600
H  -0.6075676100  -2.1312163800  2.0714325900
H  -1.5695676900  -0.8452162800  1.8024325700
H  0.4884324700  -1.9852163700  0.1124324400
C  -1.4885676800  -1.6242163400  -0.6685676200
H  -1.1405676500  -1.5702163400  -1.6995677000
H  -1.7795677000  -2.6542164200  -0.4565676000
C  -2.6585677700  -0.7092162700  -0.4525676000
C  -3.6965678500  -1.0692163000  0.4134324600
H  -3.6825678500  -2.0492163700  0.8764325000
C  -4.7545679300  -0.1982162300  0.6694324800
H  -5.5505679900  -0.4982162500  1.3384325300
C  -4.7875679300  1.0527838600  0.0594324400
H  -5.6075679900  1.7307839200  0.2524324500
C  -3.7625678500  1.4217838900  -0.8115676300
H  -3.7875678600  2.3877839700  -1.2965676700
C  -2.7065677700  0.5507838300  -1.0645676500
H  -1.9115677100  0.8367838500  -1.7415677000