37
charge=0, multiplicity=1, basis=def2-QZVPPD, AUX_BASIS_CORR=rimp2-def2-QZVPPD, SCF_ALGORITHM=GDM, xc_grid=000099000590, mem_total=120000, num_basis=1833, num_pairs=1142711, num_threads=32
O  -1.5868649900  -1.5259730900  0.2818108300
C  -2.5628650600  -2.0509731300  -0.2071892000
O  -2.7958650800  -3.3759732300  -0.1611892000
H  -2.0538650200  -3.7639732600  0.3268108400
C  -3.6648651400  -1.3369730700  -0.9651892600
H  -4.6168652200  -1.6509731000  -0.5441892300
H  -3.6308651400  -1.6649731000  -2.0021893400
N  -3.5378651300  0.0890270300  -0.8851892600
H  -2.8178650800  0.5410270700  -1.4401893000
C  -3.7998651500  0.6760270800  0.3218108400
O  -4.4148652000  0.1210270400  1.2208109000
C  -3.1738651100  2.0540271800  0.4718108500
H  -3.6338651400  2.5590272200  1.3138109100
H  -3.2948651100  2.6460272300  -0.4341892200
N  -1.7558650000  1.8810271700  0.7228108700
H  -1.4248649700  1.6250271500  1.6448109400
C  -0.8998649300  1.5960271500  -0.2801892100
O  -1.2068649600  1.6560271500  -1.4731893000
C  0.4981351700  1.1990271200  0.1848108200
N  0.4191351700  0.6390270800  1.5318109300
H  1.3531352400  0.5330270700  1.9098109600
H  0.0201351400  -0.2939730000  1.4718109200
H  1.0821352200  2.1220271900  0.2498108300
C  1.1481352200  0.2880270500  -0.8661892500
H  0.5351351800  -0.6089730200  -0.9651892600
H  1.1371352200  0.8030270900  -1.8251893300
C  2.5461353300  -0.0739729800  -0.4631892200
C  2.8151353500  -1.2739730700  0.2018108300
H  2.0061352900  -1.9739731200  0.3718108400
C  4.1061354500  -1.5819730900  0.6298108600
H  4.2961354600  -2.5179731600  1.1378109000
C  5.1481355300  -0.6869730300  0.4008108400
H  6.1511356000  -0.9249730400  0.7298108700
C  4.8941355100  0.5120270700  -0.2621892100
H  5.7011355700  1.2080271200  -0.4511892200
C  3.6031354100  0.8140270900  -0.6881892400
H  3.4121353900  1.7440271600  -1.2101892800