43
charge=0, multiplicity=1, basis=def2-QZVPPD, mem_total=120000, AUX_BASIS_CORR=rimp2-def2-QZVPPD, SCF_ALGORITHM=GDM, xc_grid=000099000590, num_basis=2064, num_pairs=1425888, num_threads=32
H  -1.7102731300  -2.5240075300  3.1144064700
C  -2.3196853100  -2.8277113200  2.2618042600
H  -3.3738428600  -2.6412947800  2.4832326000
H  -2.1744578100  -3.9043150500  2.1233765500
C  -1.8220059700  -2.1066290400  1.0222992600
O  -0.6232098000  -2.0024688900  0.7670426500
N  -2.7823536300  -1.5599331400  0.2171939800
H  -3.7465141600  -1.7947665700  0.4124885800
C  -2.4793652300  -1.0839159400  -1.1363489500
H  -2.0606110100  -1.9029959000  -1.7312742600
C  -3.7524924900  -0.5598019400  -1.8061713900
H  -4.1900042900  0.2736703600  -1.2462175500
H  -3.5198188600  -0.2093777600  -2.8141075200
H  -4.5031169300  -1.3533552900  -1.8905836600
C  -1.3659393000  -0.0184388900  -1.1378570600
O  -0.4542160700  -0.0690841100  -1.9528598500
N  -1.4923594700  0.9774358400  -0.2199846200
H  -2.3535531600  1.0522916200  0.3054571600
C  -0.5926679700  2.1257283600  -0.1908357100
H  -0.6502661700  2.6929862400  -1.1243507900
C  -0.9737385800  3.0337748500  0.9740562000
H  -0.9712142400  2.4557619500  1.9112104600
H  -0.2111404500  3.8192939600  1.0554588300
O  -2.2596410500  3.5786599800  0.6913659500
H  -2.4910118300  4.1888023000  1.4024423500
C  0.8895371600  1.7050374500  -0.0461370300
O  1.7675002300  2.3067367700  -0.6427611200
N  1.1280977700  0.7725148300  0.9271679600
H  0.3538348700  0.1593712300  1.1621855800
C  2.4713503100  0.2249776700  1.1351130500
H  3.1405800300  1.0618696100  1.3455002900
C  2.4536890600  -0.7460517100  2.3188464400
H  1.7663670500  -1.5780563500  2.1324131900
H  3.4558969400  -1.1534242000  2.4743074400
H  2.1438393900  -0.2312627000  3.2347394100
C  3.1000408600  -0.4426052000  -0.1115300900
O  4.2900792600  -0.2804866400  -0.3563374700
N  2.2899266500  -1.3058442000  -0.7858531800
H  1.2961760500  -1.2753986300  -0.6044539200
C  2.7147243300  -1.9404980600  -2.0212151900
H  3.7851836900  -1.7649065700  -2.1334876600
H  2.5280878600  -3.0199108800  -1.9862839900
H  2.1850275500  -1.5184935300  -2.8822714100