37
charge=0, multiplicity=1, basis=def2-QZVPPD, AUX_BASIS_CORR=rimp2-def2-QZVPPD, SCF_ALGORITHM=GDM, xc_grid=000099000590, mem_total=120000, num_basis=1833, num_pairs=1250231, num_threads=32
O  3.6423786500  0.0077297300  0.5190000400
C  2.5913785800  -0.5532703100  0.3200000200
O  1.4813784900  -0.3402703000  1.0580000800
H  1.7313785100  0.3647297600  1.6780001300
C  2.3903785600  -1.5632703900  -0.7940000600
H  3.0913786100  -2.3742704500  -0.6030000500
H  2.6873785800  -1.0772703500  -1.7210001300
N  1.0653784600  -2.0982704300  -0.9180000700
H  0.3513784100  -1.5752703900  -1.4120001100
C  0.6393784300  -3.0282705000  -0.0180000000
O  1.3833784800  -3.6112705400  0.7570000600
C  -0.8676216900  -3.2432705200  -0.0380000000
H  -1.0986217000  -4.0802705800  0.6120000500
H  -1.2106217100  -3.4532705300  -1.0510000800
N  -1.5556217400  -2.0592704300  0.4340000300
H  -1.6846217500  -1.8852704100  1.4220001100
C  -1.8246217600  -1.0212703500  -0.3770000300
O  -1.5796217400  -1.0192703500  -1.5870001200
C  -2.5096218100  0.1557297400  0.3160000200
N  -2.1886217900  0.1397297400  1.7410001300
H  -1.2566217200  0.5187297700  1.8750001400
H  -2.8256218400  0.7397297900  2.2500001700
H  -3.5826218900  -0.0392702700  0.2260000200
C  -2.2136217900  1.4687298400  -0.4270000300
H  -2.5056218100  1.3407298300  -1.4690001100
H  -2.8496218400  2.2437299000  0.0070000000
C  -0.7756216800  1.8947298700  -0.3460000300
C  -0.3056216400  2.6187299300  0.7570000600
H  -0.9986217000  2.9117299500  1.5360001200
C  1.0323784600  3.0087299600  0.8440000600
H  1.3723784800  3.5777300000  1.7000001300
C  1.9203785200  2.6887299300  -0.1800000100
H  2.9573786000  2.9847299600  -0.1160000100
C  1.4593784900  1.9847298800  -1.2920001000
H  2.1393785400  1.7517298600  -2.1010001600
C  0.1273783900  1.5837298500  -1.3700001000
H  -0.2306216400  1.0377298100  -2.2320001700