37
charge=0, multiplicity=1, basis=def2-QZVPPD, AUX_BASIS_CORR=rimp2-def2-QZVPPD, SCF_ALGORITHM=GDM, xc_grid=000099000590, mem_total=120000, num_basis=1833, num_pairs=1201289, num_threads=32
O  2.5903245200  -2.7263515600  1.1396217100
C  2.9003245400  -1.7973514900  0.4296216500
O  2.8263245400  -1.8643514900  -0.9033784500
H  3.1053245600  -0.9953514300  -1.2823784800
C  3.4013245800  -0.4683513900  0.9836217000
H  4.4123246600  -0.2903513700  0.6116216700
H  3.4233245800  -0.5443513900  2.0656217800
N  2.5623245200  0.6566487000  0.6136216700
H  1.8913244700  1.0566487300  1.2686217200
C  2.5763245200  1.1686487400  -0.6263784300
O  3.2463245700  0.6926487000  -1.5523785000
C  1.7003244500  2.3976488300  -0.8173784400
H  1.9023244700  2.7876488600  -1.8093785200
H  1.9593244700  3.1466488900  -0.0673783800
N  0.2873243500  2.0946488100  -0.7123784300
H  -0.3336757000  2.1456488100  -1.5083784900
C  -0.3256757000  1.9366488000  0.4716216600
O  0.2703243400  1.9106487900  1.5546217400
C  -1.8456758200  1.8206487900  0.3966216500
N  -2.2986758500  1.8046487900  -0.9933784500
H  -3.2036759200  2.2476488200  -1.0743784600
H  -2.4146758600  0.8416487100  -1.2983784800
H  -2.2106758400  2.7366488600  0.8656216900
C  -2.3196758500  0.6246487000  1.2456217200
H  -1.8236758100  0.6816487000  2.2136217900
H  -3.3946759300  0.7276487000  1.4056217300
C  -2.0326758300  -0.6823514000  0.5636216600
C  -3.0086759000  -1.2833514500  -0.2403784000
H  -3.9926759800  -0.8343514100  -0.3023784000
C  -2.7396758800  -2.4623515400  -0.9333784500
H  -3.5086759400  -2.9153515700  -1.5443785000
C  -1.4856757900  -3.0573515800  -0.8283784400
H  -1.2736757700  -3.9753516500  -1.3593784800
C  -0.5056757100  -2.4783515400  -0.0223783800
H  0.4623243600  -2.9483515800  0.0826216300
C  -0.7786757300  -1.2963514500  0.6626216700
H  -0.0206756800  -0.8593514200  1.3016217200