37
charge=0, multiplicity=1, basis=def2-QZVPPD, AUX_BASIS_CORR=rimp2-def2-QZVPPD, SCF_ALGORITHM=GDM, xc_grid=000099000590, mem_total=120000, num_basis=1833, num_pairs=1223467, num_threads=32
O  3.6254597300  -1.2154325200  1.5937298500
C  3.4794597200  -0.4444324700  0.6727297800
O  3.5524597300  -0.8354325000  -0.6022703200
H  3.3234597100  -0.0674324400  -1.1822703600
C  3.2104597000  1.0415676500  0.8807298000
H  3.9984597600  1.6145676900  0.3877297600
H  3.2354597100  1.2365676600  1.9467298800
N  1.9214596100  1.4695676800  0.3667297600
H  1.1734595500  1.7595677000  0.9967298100
C  1.6954595900  1.6035676900  -0.9462703400
O  2.5154596500  1.2815676600  -1.8182704100
C  0.3624594900  2.2415677400  -1.3142703700
H  0.3164594800  2.2765677400  -2.3972704500
H  0.3524594900  3.2595678200  -0.9212703400
N  -0.8065406000  1.5455676800  -0.8192703300
H  -1.3945406500  1.0025676400  -1.4372703800
C  -1.2205406300  1.6255676900  0.4567297600
O  -0.5775405800  2.1855677300  1.3527298300
C  -2.5495407300  0.9515676400  0.7477297900
N  -3.3235407900  0.7925676300  -0.4812703100
H  -3.7075408200  1.6875677000  -0.7652703300
H  -4.1165408500  0.1855675800  -0.3072702900
H  -3.0345407700  1.5825676900  1.4977298400
C  -2.2825407100  -0.4174324600  1.3987298400
H  -1.8215406800  -0.2324324500  2.3697299100
H  -3.2515407900  -0.8884325000  1.5847298500
C  -1.4025406500  -1.3234325300  0.5857297700
C  -0.0595405500  -1.5004325500  0.9387298000
H  0.3304594800  -1.0034325100  1.8187298700
C  0.7764595200  -2.3274326100  0.1897297400
H  1.8034596000  -2.4694326200  0.4917297700
C  0.2794594800  -2.9754326600  -0.9392703400
H  0.9284595300  -3.6124327100  -1.5242703900
C  -1.0565406200  -2.8124326500  -1.3002703700
H  -1.4525406500  -3.3264326800  -2.1662704300
C  -1.8915406800  -1.9984325800  -0.5382703100
H  -2.9315407600  -1.8934325800  -0.8172703300