37
charge=0, multiplicity=1, basis=def2-QZVPPD, AUX_BASIS_CORR=rimp2-def2-QZVPPD, SCF_ALGORITHM=GDM, xc_grid=000099000590, mem_total=120000, num_basis=1833, num_pairs=1115701, num_threads=32
O  -2.2898380100  1.6232433700  0.3725946200
C  -3.4198381000  1.8832433900  0.0265946000
O  -3.9998381400  3.0832434800  0.2245946100
H  -3.3408380900  3.6292435200  0.6785946500
C  -4.3638381700  0.9402433100  -0.6924054600
H  -4.5768381900  1.3522433500  -1.6764055300
H  -5.2958382400  0.9082433100  -0.1324054200
N  -3.8168381300  -0.3807567900  -0.8064054700
H  -3.0598380700  -0.5257568000  -1.4684055200
C  -3.7328381200  -1.1257568400  0.3375946200
O  -4.3758381700  -0.8827568200  1.3495947000
C  -2.6938380400  -2.2337569300  0.2605946100
H  -2.7288380400  -2.7457569700  -0.6994054600
H  -2.8658380600  -2.9367569800  1.0685946800
N  -1.3838379400  -1.6287568800  0.4115946300
H  -1.0498379200  -1.3537568600  1.3275947000
C  -0.7908379000  -0.9827568300  -0.6134054500
O  -1.1928379300  -1.0267568300  -1.7794055400
C  0.4641622000  -0.2187567700  -0.2324054200
N  0.4121621900  0.1702432600  1.1725946800
H  1.3221622600  0.5132432800  1.4595947100
H  -0.2478378600  0.9342433100  1.2805946900
H  0.5161622000  0.6252432900  -0.9254054800
C  1.6781622900  -1.1247568400  -0.4814054400
H  1.5971622800  -1.9947569100  0.1715946100
H  1.6341622900  -1.4677568700  -1.5164055200
C  2.9631623900  -0.3947567900  -0.2204054200
C  3.6461624400  -0.5487568000  0.9885946700
H  3.2651624100  -1.2457568500  1.7255947300
C  4.8091625300  0.1742432600  1.2495946900
H  5.3281625700  0.0392432500  2.1895947600
C  5.3051625600  1.0632433200  0.2995946200
H  6.2091626300  1.6222433700  0.4975946300
C  4.6331625100  1.2242433400  -0.9124054700
H  5.0171625400  1.9072433900  -1.6574055300
C  3.4711624300  0.5012432800  -1.1674054900
H  2.9541623900  0.6242432900  -2.1114055700