39
charge=0, multiplicity=1, basis=def2-QZVPPD, AUX_BASIS_CORR=rimp2-def2-QZVPPD, SCF_ALGORITHM=GDM, xc_grid=000099000590, mem_total=120000, num_basis=1869, num_pairs=1211463, num_threads=32
H  -2.3522946600  1.8178956000  3.1485866500
C  -3.1062064700  1.7216581400  2.3645330100
H  -3.3953346500  2.7324776000  2.0615972500
H  -3.9857856500  1.2107495000  2.7642606400
C  -2.4853344000  1.0154456500  1.1729891300
O  -1.3361169100  1.2519460300  0.8058769800
N  -3.2729132300  0.0804240700  0.5538366300
H  -4.2438841500  0.0558884800  0.8309514100
C  -2.9766144500  -0.4398409500  -0.7936104900
H  -3.6822116100  -1.2653913900  -0.9493149400
C  -3.1684975600  0.6082977700  -1.8897672700
H  -2.4897805500  1.4491937700  -1.7341022300
H  -2.9448548900  0.1723369400  -2.8651607700
H  -4.1996587000  0.9740584000  -1.8893995900
C  -1.5620724800  -1.0627684400  -0.8576457000
O  -0.8146123600  -0.8709049500  -1.8047926200
N  -1.2601367500  -1.9104399400  0.1647062500
H  -1.8994423100  -1.9629407800  0.9438754000
C  0.0250459200  -2.5932925100  0.2414982400
H  0.0335958500  -3.1951185500  1.1540515300
H  0.1551432600  -3.2576505100  -0.6162099800
C  1.2624201800  -1.6699375500  0.2406619600
O  2.2628245100  -1.9889870600  -0.3814348600
N  1.1915125300  -0.6054023200  1.0951281600
H  0.2643170500  -0.2940092900  1.3537545500
C  2.2619504700  0.3993714800  1.1860530800
H  1.8561255700  1.1870402400  1.8334451600
C  3.5325940400  -0.1643462800  1.8213264500
H  3.9452428800  -0.9562935000  1.1966745300
H  4.2803257500  0.6252936700  1.9101796800
H  3.3072288400  -0.5635297100  2.8152094000
C  2.5698413800  1.0805823800  -0.1751320800
O  3.7209069700  1.3075132400  -0.5299556700
N  1.4683524100  1.4976038100  -0.8597498000
H  0.5589126200  1.1887704000  -0.5468548600
C  1.5640870500  2.0526012400  -2.1972371900
H  1.1232943000  1.3738667300  -2.9352167500
H  1.0540970300  3.0210549100  -2.2572087300
H  2.6216633900  2.1936511200  -2.4229245800