39
charge=0, multiplicity=1, basis=def2-QZVPPD, AUX_BASIS_CORR=rimp2-def2-QZVPPD, SCF_ALGORITHM=GDM, xc_grid=000099000590, mem_total=120000, num_basis=1869, num_pairs=1055389, num_threads=32
H  7.1455871600  -0.8952371000  0.4950961900
C  6.2511856300  -1.0995836300  -0.0937040400
H  5.8714247100  -2.0873050900  0.1910658200
H  6.5047548300  -1.1236962900  -1.1570215600
C  5.1999055900  -0.0511609700  0.2293351900
O  5.1601267000  0.5352819700  1.3022176400
N  4.3034151500  0.2063756000  -0.7895960300
H  4.2072139800  -0.5265269900  -1.4822623800
C  3.0629898000  0.9013877100  -0.4872134900
H  3.3123782200  1.6798160700  0.2392442700
C  2.4643187400  1.5199103300  -1.7596291200
H  2.2779069500  0.7432767000  -2.5091677800
H  1.5071107600  2.0020011900  -1.5455466100
H  3.1531116800  2.2566139100  -2.1827210100
C  2.0427101600  -0.0692104100  0.1353690600
O  2.0145718100  -1.2562158200  -0.1672527600
N  1.1586214200  0.4998431900  1.0123337400
H  1.1268430200  1.5099556500  1.0350828300
C  -0.0831166700  -0.1741444200  1.3251130200
H  0.1357153300  -1.2347989900  1.4691399800
H  -0.4916631700  0.2254227300  2.2605198500
C  -1.1289238600  0.0198376300  0.2163906000
O  -1.1366522800  1.0226611200  -0.4878895200
N  -2.0193648700  -1.0083959200  0.0708234400
H  -2.0974039200  -1.6509251900  0.8491091000
C  -3.2486846500  -0.8047295600  -0.6796672900
H  -2.9838299300  -0.1868159700  -1.5421843100
C  -3.8195356800  -2.1510674500  -1.1435507500
H  -4.0844030800  -2.7729810200  -0.2810325600
H  -4.7248280900  -2.0023791800  -1.7374389600
H  -3.0839957200  -2.6865718800  -1.7493353200
C  -4.2782298100  -0.0652140300  0.2014338100
O  -4.3232918500  -0.2567181300  1.4115476100
N  -5.1535897100  0.7283583200  -0.4756787600
H  -4.9621905800  0.9294709900  -1.4459818600
C  -6.1993501600  1.4848635800  0.1944379500
H  -5.9689308100  2.5561483800  0.2198348100
H  -7.1614499000  1.3407566100  -0.3062932000
H  -6.2642136700  1.1153656100  1.2176282200