10
charge=0, multiplicity=1, basis=def2-QZVPPD, AUX_BASIS_CORR=rimp2-def2-QZVPPD, SCF_ALGORITHM=GDM, xc_grid=000099000590, mem_total=3750, num_basis=536, num_pairs=109182, num_threads=1
P  0.1108740000  1.7750850000  0.0000000000
H  1.0689520000  1.7606980000  1.0407840000
H  1.0689520000  1.7606980000  -1.0407840000
C  -0.1108740000  3.5505930000  0.0000000000
N  -0.3558730000  4.6732250000  0.0000000000
P  -0.1108740000  -1.7750850000  0.0000000000
H  -1.0689520000  -1.7606980000  1.0407840000
H  -1.0689520000  -1.7606980000  -1.0407840000
C  0.1108740000  -3.5505930000  0.0000000000
N  0.3558730000  -4.6732250000  0.0000000000