6
charge=0, multiplicity=1, basis=def2-QZVPPD, AUX_BASIS_CORR=rimp2-def2-QZVPPD, SCF_ALGORITHM=GDM, xc_grid=000099000590, mem_total=3750, num_basis=271, num_pairs=36793, num_threads=1
P  0.0172000000  -1.9405645000  0.0000000000
H  -0.8039098000  -1.5671866000  1.0813837000
H  -0.8039098000  -1.5671866000  -1.0813837000
B  -0.0172000000  -3.8054019000  0.0000000000
H  0.0488140000  -4.3928708000  1.0337057000
H  0.0488140000  -4.3928708000  -1.0337057000