8
charge=0, multiplicity=1, basis=def2-QZVPPD, AUX_BASIS_CORR=rimp2-def2-QZVPPD, SCF_ALGORITHM=GDM, xc_grid=000099000590, mem_total=3750, num_basis=337, num_pairs=51697, num_threads=1
N  0.0549810000  -2.1256000000  0.0000000000
P  0.0549810000  1.1994910000  0.0000000000
H  -0.4862270000  -2.9797610000  0.0000000000
H  -0.3857960000  2.5499040000  0.0000000000
H  0.6555230000  -2.1464830000  0.8134310000
H  -0.8242970000  0.8048270000  1.0357430000
H  0.6555230000  -2.1464830000  -0.8134310000
H  -0.8242970000  0.8048270000  -1.0357430000