8
charge=0, multiplicity=1, basis=def2-QZVPPD, AUX_BASIS_CORR=rimp2-def2-QZVPPD, SCF_ALGORITHM=GDM, xc_grid=000099000590, mem_total=3750, num_basis=416, num_pairs=76896, num_threads=1
P  0.3545220000  -1.2210430000  0.0000000000
P  -0.3545220000  1.2210430000  0.0000000000
F  0.3545220000  -2.8469690000  0.0000000000
F  -0.3545220000  2.8469690000  0.0000000000
H  1.2801390000  -1.0207960000  1.0509230000
H  -1.2801390000  1.0207960000  1.0509230000
H  1.2801390000  -1.0207960000  -1.0509230000
H  -1.2801390000  1.0207960000  -1.0509230000