8
charge=0, multiplicity=1, basis=def2-QZVPPD, AUX_BASIS_CORR=rimp2-def2-QZVPPD, SCF_ALGORITHM=GDM, xc_grid=000099000590, mem_total=3750, num_basis=370, num_pairs=62607, num_threads=1
N  0.8737580000  -2.1182840000  0.0000000000
P  0.0000000000  0.4181340000  0.0000000000
H  0.2094500000  -2.8807270000  0.0000000000
F  -0.8645860000  1.8133870000  0.0000000000
H  1.4631260000  -2.2218160000  0.8150710000
H  -0.7353680000  -0.2200680000  1.0319270000
H  1.4631260000  -2.2218160000  -0.8150710000
H  -0.7353680000  -0.2200680000  -1.0319270000