4
charge=0, multiplicity=1, basis=def2-QZVPPD, AUX_BASIS_CORR=rimp2-def2-QZVPPD, SCF_ALGORITHM=GDM, xc_grid=000099000590, mem_total=3750, num_basis=162, num_pairs=13492, num_threads=1
N  0.0746930000  3.1103901000  0.0000000000
H  -0.3942549000  3.4834100000  0.8150848000
H  -0.3942549000  3.4834100000  -0.8150848000
H  1.0206837000  3.4692550000  0.0000000000