4
charge=0, multiplicity=1, basis=def2-QZVPPD, AUX_BASIS_CORR=rimp2-def2-QZVPPD, SCF_ALGORITHM=GDM, xc_grid=000099000590, mem_total=3750, num_basis=175, num_pairs=15705, num_threads=1
P  0.0298290000  -1.9198825000  0.0000000000
H  0.3097739000  -3.3086341000  0.0000000000
H  -0.9295757000  -2.0010824000  1.0374577000
H  -0.9295757000  -2.0010824000  -1.0374577000