12
charge=0, multiplicity=1, basis=def2-QZVPPD, AUX_BASIS_CORR=rimp2-def2-QZVPPD, SCF_ALGORITHM=GDM, xc_grid=000099000590, mem_total=3750, num_basis=542, num_pairs=115732, num_threads=1
P  0.0677280000  1.6821600000  -0.0836810000
H  0.3020050000  1.4682730000  -1.4722690000
H  1.4314980000  1.5142750000  0.2600080000
N  -0.0405560000  3.3838700000  0.0466800000
H  -0.9761130000  3.7332130000  0.1624280000
H  0.4974150000  3.9660680000  -0.5731920000
P  -0.0677280000  -1.6821600000  0.0836810000
H  -1.4314980000  -1.5142750000  -0.2600080000
H  -0.3020050000  -1.4682730000  1.4722690000
N  0.0405560000  -3.3838700000  -0.0466800000
H  0.9761130000  -3.7332130000  -0.1624280000
H  -0.4974150000  -3.9660680000  0.5731920000