4
charge=0, multiplicity=1, basis=def2-QZVPPD, AUX_BASIS_CORR=rimp2-def2-QZVPPD, SCF_ALGORITHM=GDM, xc_grid=000099000590, mem_total=3750, num_basis=175, num_pairs=15705, num_threads=1
P  -0.2333719000  -2.1467894000  0.0000000000
H  0.5540098000  -3.3234941000  0.0000000000
H  -1.0898187000  -2.5737773000  1.0416897000
H  -1.0898187000  -2.5737773000  -1.0416897000