4
charge=0, multiplicity=1, basis=def2-QZVPPD, AUX_BASIS_CORR=rimp2-def2-QZVPPD, SCF_ALGORITHM=GDM, xc_grid=000099000590, mem_total=3750, num_basis=221, num_pairs=24611, num_threads=1
P  -0.1340830000  -1.4774666000  0.0000000000
H  -1.0984457000  -1.4173276000  -1.0342717000
H  -1.0984457000  -1.4173276000  1.0342717000
Cl  0.1340830000  -3.5410310000  0.0000000000