8
charge=0, multiplicity=1, basis=def2-QZVPPD, AUX_BASIS_CORR=rimp2-def2-QZVPPD, SCF_ALGORITHM=GDM, xc_grid=000099000590, mem_total=3750, num_basis=370, num_pairs=59238, num_threads=1
N  0.0000000000  1.3225770000  0.0000000000
P  0.0298290000  -1.9198830000  0.0000000000
F  -0.0065780000  2.7374280000  0.0000000000
H  0.3097740000  -3.3086350000  0.0000000000
H  0.5805730000  1.1070750000  0.8079040000
H  -0.9295760000  -2.0010830000  1.0374580000
H  0.5805730000  1.1070750000  -0.8079040000
H  -0.9295760000  -2.0010830000  -1.0374580000