10
charge=0, multiplicity=1, basis=def2-QZVPPD, AUX_BASIS_CORR=rimp2-def2-QZVPPD, SCF_ALGORITHM=GDM, xc_grid=000099000590, mem_total=3750, num_basis=536, num_pairs=113913, num_threads=1
P  -0.0001040000  -1.6135900000  0.0000000000
H  -0.9622510000  -1.6372060000  1.0372590000
H  -0.9622510000  -1.6372060000  -1.0372590000
N  0.3441800000  -3.2915200000  0.0000000000
C  0.7394650000  -4.3926680000  0.0000000000
P  0.0000000000  1.6135700000  0.0000000000
H  0.9621500000  1.6370840000  1.0372590000
H  0.9621500000  1.6370840000  -1.0372590000
N  -0.3441030000  3.2915400000  0.0000000000
C  -0.7392610000  4.3927340000  0.0000000000