6
charge=0, multiplicity=1, basis=def2-QZVPPD, AUX_BASIS_CORR=rimp2-def2-QZVPPD, SCF_ALGORITHM=GDM, xc_grid=000099000590, mem_total=3750, num_basis=271, num_pairs=37119, num_threads=1
P  0.0677280000  1.6821595000  -0.0836810000
H  0.3020049000  1.4682726000  -1.4722686000
H  1.4314976000  1.5142746000  0.2600079000
N  -0.0405560000  3.3838690000  0.0466800000
H  -0.9761127000  3.7332120000  0.1624280000
H  0.4974149000  3.9660669000  -0.5731918000