5
charge=0, multiplicity=1, basis=def2-QZVPPD, AUX_BASIS_CORR=rimp2-def2-QZVPPD, SCF_ALGORITHM=GDM, xc_grid=000099000590, mem_total=3750, num_basis=268, num_pairs=35700, num_threads=1
P  0.0000000000  0.2595699000  0.0000000000
H  0.2476049000  -0.6600828000  -1.0417817000
H  0.2476049000  -0.6600828000  1.0417817000
C  -1.7849955000  -0.0087890000  0.0000000000
N  -2.9329872000  -0.0745360000  0.0000000000