8
charge=0, multiplicity=1, basis=def2-QZVPPD, AUX_BASIS_CORR=rimp2-def2-QZVPPD, SCF_ALGORITHM=GDM, xc_grid=000099000590, mem_total=3750, num_basis=350, num_pairs=53517, num_threads=1
P  0.0000000000  1.8457110000  0.0000000000
P  0.0000000000  -1.8457110000  0.0000000000
H  -0.0361210000  3.2635350000  0.0000000000
H  0.0361210000  -3.2635350000  0.0000000000
H  -0.9589300000  1.7214080000  1.0352630000
H  0.9589300000  -1.7214080000  1.0352630000
H  -0.9589300000  1.7214080000  -1.0352630000
H  0.9589300000  -1.7214080000  -1.0352630000