4
charge=0, multiplicity=1, basis=def2-QZVPPD, AUX_BASIS_CORR=rimp2-def2-QZVPPD, SCF_ALGORITHM=GDM, xc_grid=000099000590, mem_total=3750, num_basis=162, num_pairs=13492, num_threads=1
N  -0.6688908000  -2.1530704000  0.0000000000
H  -1.5478446000  -1.6513405000  0.0000000000
H  -0.6651608000  -2.7538722000  -0.8134068000
H  -0.6651608000  -2.7538722000  0.8134068000