4
charge=0, multiplicity=1, basis=def2-QZVPPD, AUX_BASIS_CORR=rimp2-def2-QZVPPD, SCF_ALGORITHM=GDM, xc_grid=000099000590, mem_total=3750, num_basis=274, num_pairs=37293, num_threads=1
P  0.1312440000  1.8399575000  -0.0000080000
F  1.1710607000  1.8033475000  1.1886377000
F  1.1711317000  1.8033205000  -1.1885907000
F  -0.1312440000  3.3965320000  -0.0000340000