14
charge=0, multiplicity=1, basis=def2-QZVPPD, AUX_BASIS_CORR=rimp2-def2-QZVPPD, SCF_ALGORITHM=GDM, xc_grid=000099000590, mem_total=7500, num_basis=674, num_pairs=185641, num_threads=2
P  0.1492620000  1.5345740000  -0.2582340000
H  1.0077150000  1.3285340000  -1.3719480000
F  -0.1492620000  3.1126910000  -0.5141780000
C  1.4627890000  1.6916220000  1.0105130000
P  -0.1492620000  -1.5345740000  -0.2582340000
H  -1.0077150000  -1.3285340000  -1.3719480000
F  0.1492620000  -3.1126910000  -0.5141780000
C  -1.4627890000  -1.6916220000  1.0105130000
H  1.0163150000  1.9752090000  1.9620700000
H  1.9440270000  0.7211390000  1.1259700000
H  2.2054990000  2.4324220000  0.7219380000
H  -1.0163150000  -1.9752090000  1.9620700000
H  -1.9440270000  -0.7211390000  1.1259700000
H  -2.2054990000  -2.4324220000  0.7219380000