4
charge=0, multiplicity=1, basis=def2-QZVPPD, AUX_BASIS_CORR=rimp2-def2-QZVPPD, SCF_ALGORITHM=GDM, xc_grid=000099000590, mem_total=3750, num_basis=208, num_pairs=22058, num_threads=1
P  0.0000000000  1.0463147000  0.0000000000
F  0.3703499000  2.6315283000  0.0000000000
H  0.8965317000  0.6472058000  1.0281717000
H  0.8965317000  0.6472058000  -1.0281717000