10
charge=0, multiplicity=1, basis=def2-QZVPPD, AUX_BASIS_CORR=rimp2-def2-QZVPPD, SCF_ALGORITHM=GDM, xc_grid=000099000590, mem_total=3750, num_basis=523, num_pairs=119258, num_threads=1
N  -2.6773620000  -0.8053130000  0.0860630000
H  -3.1082700000  -1.7073940000  0.2398350000
H  -3.0221940000  -0.4527230000  -0.7975940000
H  -3.0160440000  -0.1765980000  0.8032730000
P  0.1859830000  -0.6363120000  -0.2035780000
H  -0.0412530000  -1.0266980000  1.1312050000
C  -0.3858820000  1.0508140000  -0.0151780000
C  1.9372190000  -0.2698170000  0.0461960000
N  -0.8147120000  2.1160160000  0.0117440000
N  3.0763590000  -0.1361160000  0.1151700000