6
charge=0, multiplicity=1, basis=def2-QZVPPD, AUX_BASIS_CORR=rimp2-def2-QZVPPD, SCF_ALGORITHM=GDM, xc_grid=000099000590, mem_total=3750, num_basis=301, num_pairs=44114, num_threads=1
P  0.0691000000  1.7546715000  0.0000000000
H  1.0250537000  1.6471505000  1.0390297000
H  1.0250537000  1.6471505000  -1.0390297000
C  -0.0691000000  3.5237640000  0.0000000000
C  -0.2855349000  4.7044717000  0.0000000000
H  -0.4632309000  5.7524234000  0.0000000000