5
charge=0, multiplicity=1, basis=def2-QZVPPD, AUX_BASIS_CORR=rimp2-def2-QZVPPD, SCF_ALGORITHM=GDM, xc_grid=000099000590, mem_total=3750, num_basis=268, num_pairs=35686, num_threads=1
P  -0.1108740000  -1.7750845000  0.0000000000
H  -1.0689517000  -1.7606975000  1.0407837000
H  -1.0689517000  -1.7606975000  -1.0407837000
C  0.1108740000  -3.5505920000  0.0000000000
N  0.3558729000  -4.6732237000  0.0000000000