4
charge=0, multiplicity=1, basis=def2-QZVPPD, AUX_BASIS_CORR=rimp2-def2-QZVPPD, SCF_ALGORITHM=GDM, xc_grid=000099000590, mem_total=3750, num_basis=162, num_pairs=13492, num_threads=1
N  2.9625822000  -0.2028849000  0.0000000000
H  3.3244151000  0.2774729000  0.8134138000
H  3.3244151000  0.2774729000  -0.8134138000
H  3.3587711000  -1.1336397000  0.0000000000