12
charge=0, multiplicity=1, basis=def2-QZVPPD, AUX_BASIS_CORR=rimp2-def2-QZVPPD, SCF_ALGORITHM=GDM, xc_grid=000099000590, mem_total=3750, num_basis=602, num_pairs=133604, num_threads=1
P  0.0691000000  1.7546720000  0.0000000000
H  1.0250540000  1.6471510000  1.0390300000
H  1.0250540000  1.6471510000  -1.0390300000
C  -0.0691000000  3.5237650000  0.0000000000
C  -0.2855350000  4.7044730000  0.0000000000
H  -0.4632310000  5.7524250000  0.0000000000
P  -0.0691000000  -1.7546720000  0.0000000000
H  -1.0250540000  -1.6471510000  1.0390300000
H  -1.0250540000  -1.6471510000  -1.0390300000
C  0.0691000000  -3.5237650000  0.0000000000
C  0.2855350000  -4.7044730000  0.0000000000
H  0.4632310000  -5.7524250000  0.0000000000