4
charge=0, multiplicity=1, basis=def2-QZVPPD, AUX_BASIS_CORR=rimp2-def2-QZVPPD, SCF_ALGORITHM=GDM, xc_grid=000099000590, mem_total=3750, num_basis=162, num_pairs=13492, num_threads=1
N  0.8737578000  -2.1182834000  0.0000000000
H  0.2094499000  -2.8807262000  0.0000000000
H  1.4631256000  -2.2218154000  0.8150708000
H  1.4631256000  -2.2218154000  -0.8150708000