4
charge=0, multiplicity=1, basis=def2-QZVPPD, AUX_BASIS_CORR=rimp2-def2-QZVPPD, SCF_ALGORITHM=GDM, xc_grid=000099000590, mem_total=3750, num_basis=195, num_pairs=19471, num_threads=1
N  0.7939788000  -1.5251896000  0.0000000000
F  -0.0140210000  -2.6757912000  0.0000000000
H  1.3875296000  -1.6632915000  0.8147108000
H  1.3875296000  -1.6632915000  -0.8147108000