7
charge=0, multiplicity=1, basis=def2-QZVPPD, AUX_BASIS_CORR=rimp2-def2-QZVPPD, SCF_ALGORITHM=GDM, xc_grid=000099000590, mem_total=3750, num_basis=337, num_pairs=56258, num_threads=1
P  0.1492620000  1.5345736000  -0.2582339000
H  1.0077147000  1.3285336000  -1.3719476000
F  -0.1492620000  3.1126901000  -0.5141779000
C  1.4627886000  1.6916215000  1.0105127000
H  1.0163147000  1.9752084000  1.9620694000
H  1.9440265000  0.7211388000  1.1259697000
H  2.2054984000  2.4324213000  0.7219378000