10
charge=0, multiplicity=1, basis=def2-QZVPPD, AUX_BASIS_CORR=rimp2-def2-QZVPPD, SCF_ALGORITHM=GDM, xc_grid=000099000590, mem_total=3750, num_basis=499, num_pairs=106559, num_threads=1
N  0.0746930000  3.1103910000  0.0000000000
H  -0.3942550000  3.4834110000  0.8150850000
H  -0.3942550000  3.4834110000  -0.8150850000
H  1.0206840000  3.4692560000  0.0000000000
P  -0.2380000000  0.4706910000  0.0000000000
H  0.6783190000  0.6601070000  -1.0524520000
H  0.6783190000  0.6601070000  1.0524520000
N  0.0376070000  -1.3752520000  0.0000000000
O  0.0746930000  -1.9351650000  -1.0770910000
O  0.0746930000  -1.9351650000  1.0770910000