8
charge=0, multiplicity=1, basis=def2-QZVPPD, AUX_BASIS_CORR=rimp2-def2-QZVPPD, SCF_ALGORITHM=GDM, xc_grid=000099000590, mem_total=3750, num_basis=383, num_pairs=64291, num_threads=1
P  0.0000000000  1.0463150000  0.0000000000
P  -0.2333720000  -2.1467900000  0.0000000000
F  0.3703500000  2.6315290000  0.0000000000
H  0.5540100000  -3.3234950000  0.0000000000
H  0.8965320000  0.6472060000  1.0281720000
H  -1.0898190000  -2.5737780000  1.0416900000
H  0.8965320000  0.6472060000  -1.0281720000
H  -1.0898190000  -2.5737780000  -1.0416900000