5
charge=0, multiplicity=1, basis=def2-QZVPPD, AUX_BASIS_CORR=rimp2-def2-QZVPPD, SCF_ALGORITHM=GDM, xc_grid=000099000590, mem_total=3750, num_basis=268, num_pairs=36131, num_threads=1
P  -0.0001040000  -1.6135895000  0.0000000000
H  -0.9622507000  -1.6372055000  1.0372587000
H  -0.9622507000  -1.6372055000  -1.0372587000
N  0.3441799000  -3.2915191000  0.0000000000
C  0.7394648000  -4.3926668000  0.0000000000