4
charge=0, multiplicity=1, basis=def2-QZVPPD, AUX_BASIS_CORR=rimp2-def2-QZVPPD, SCF_ALGORITHM=GDM, xc_grid=000099000590, mem_total=3750, num_basis=175, num_pairs=15705, num_threads=1
P  0.0549810000  1.1994907000  0.0000000000
H  -0.3857959000  2.5499033000  0.0000000000
H  -0.8242968000  0.8048268000  1.0357427000
H  -0.8242968000  0.8048268000  -1.0357427000