10
charge=0, multiplicity=1, basis=def2-QZVPPD, AUX_BASIS_CORR=rimp2-def2-QZVPPD, SCF_ALGORITHM=GDM, xc_grid=000099000590, mem_total=3750, num_basis=482, num_pairs=96554, num_threads=1
P  0.0993640000  1.5147680000  0.0000000000
H  1.0636160000  1.4120980000  1.0344570000
H  1.0636160000  1.4120980000  -1.0344570000
O  -0.0993640000  3.1671110000  0.0000000000
H  -1.0311270000  3.3832940000  0.0000000000
P  -0.0993640000  -1.5147680000  0.0000000000
H  -1.0636160000  -1.4120980000  1.0344570000
H  -1.0636160000  -1.4120980000  -1.0344570000
O  0.0993640000  -3.1671110000  0.0000000000
H  1.0311270000  -3.3832940000  0.0000000000