4
charge=0, multiplicity=1, basis=def2-QZVPPD, AUX_BASIS_CORR=rimp2-def2-QZVPPD, SCF_ALGORITHM=GDM, xc_grid=000099000590, mem_total=3750, num_basis=162, num_pairs=13492, num_threads=1
N  2.5618133000  -0.6121078000  0.0000000000
H  3.1074191000  -0.3721369000  0.8176378000
H  3.1074191000  -0.3721369000  -0.8176378000
H  2.4441203000  -1.6176735000  0.0000000000