8
charge=0, multiplicity=1, basis=def2-QZVPPD, AUX_BASIS_CORR=rimp2-def2-QZVPPD, SCF_ALGORITHM=GDM, xc_grid=000099000590, mem_total=3750, num_basis=357, num_pairs=57824, num_threads=1
N  0.0000000000  0.6912830000  0.0000000000
N  -0.6688910000  -2.1530710000  0.0000000000
F  0.7563950000  1.8902870000  0.0000000000
H  -1.5478450000  -1.6513410000  0.0000000000
H  0.3764220000  0.1895090000  0.8005920000
H  -0.6651610000  -2.7538730000  -0.8134070000
H  0.3764220000  0.1895090000  -0.8005920000
H  -0.6651610000  -2.7538730000  0.8134070000