6
charge=0, multiplicity=1, basis=AUG-PC-3, multipole_field={'X': 0.01}, AUX_BASIS_CORR=rimp2-def2-QZVPPD, SCF_ALGORITHM=GDM, xc_grid=000099000590, mem_total=3750, num_basis=417, num_pairs=87268, num_threads=1
C1      0.0000  0.4165  0.0000
O2      1.1942  0.2217  0.0000
N3      -0.9373 -0.5551 0.0000
H4      -0.4299 1.4182  0.0000
H5      -0.6608 -1.5171 0.0000
H6      -1.9020 -0.2881 0.0000