3
charge=0, multiplicity=1, basis=AUG-PC-3, AUX_BASIS_CORR=rimp2-def2-QZVPPD, SCF_ALGORITHM=GDM, xc_grid=000099000590, mem_total=3750, num_basis=267, num_pairs=36274, num_threads=1
F  -0.9545000000  -0.6093000000  0.0000000000
N  0.0000000000  0.5633000000  0.0000000000
O  1.0738000000  0.1926000000  0.0000000000