4
charge=0, multiplicity=1, basis=AUG-PC-3, multipole_field={'Z': 0.01}, AUX_BASIS_CORR=rimp2-def2-QZVPPD, SCF_ALGORITHM=GDM, xc_grid=000099000590, mem_total=3750, num_basis=278, num_pairs=39273, num_threads=1
S1      0.0000  0.0000  0.5846
C2      0.0000  0.0000  -1.0262
H3      0.0000  0.9244  -1.5980
H4      0.0000  -0.9244 -1.5980