5
charge=0, multiplicity=1, basis=AUG-PC-3, AUX_BASIS_CORR=rimp2-def2-QZVPPD, SCF_ALGORITHM=GDM, xc_grid=000099000590, mem_total=3750, num_basis=328, num_pairs=53965, num_threads=1
Si  0.0000000000  0.0000000000  -0.9844000000
Cl  0.0000000000  0.0000000000  1.0661000000
H  0.0000000000  1.4004000000  -1.4474000000
H  1.2128000000  -0.7002000000  -1.4474000000
H  -1.2128000000  -0.7002000000  -1.4474000000