7
charge=0, multiplicity=1, basis=AUG-PC-3, multipole_field={'Z': -0.01}, AUX_BASIS_CORR=rimp2-def2-QZVPPD, SCF_ALGORITHM=GDM, xc_grid=000099000590, mem_total=3750, num_basis=428, num_pairs=92247, num_threads=1
         N       0.7505020558    -0.1263257432    -0.0000000014
         H       1.1371866572     0.3468207227    -0.8058999300
         H       1.1371866572     0.3468207227     0.8058999300
         C      -0.7051562913     0.0180439780    -0.0000000014
         H      -1.1126045962    -0.4830900647     0.8751002462
         H      -1.1126045962    -0.4830900647    -0.8751002462
         H      -1.0717407540     1.0485550259     0.0000000000