3
charge=0, multiplicity=1, basis=AUG-PC-3, AUX_BASIS_CORR=rimp2-def2-QZVPPD, SCF_ALGORITHM=GDM, xc_grid=000099000590, mem_total=3750, num_basis=267, num_pairs=36099, num_threads=1
Cl  -0.5312000000  -0.9298000000  0.0000000000
N  0.0000000000  0.9724000000  0.0000000000
O  1.1287000000  1.1250000000  0.0000000000