4
charge=0, multiplicity=1, basis=AUG-PC-3, multipole_field={'X': 0.01}, AUX_BASIS_CORR=rimp2-def2-QZVPPD, SCF_ALGORITHM=GDM, xc_grid=000099000590, mem_total=3750, num_basis=278, num_pairs=39318, num_threads=1
          N       0.0000000000     0.0000000000     0.0000000000
          H       0.0000000000     0.0000000000     1.0171780000
          H       0.9838480958     0.0000000000    -0.2582518307
          F      -0.3678444665     1.3400564697    -0.2837498835