6
charge=0, multiplicity=1, basis=AUG-PC-3, AUX_BASIS_CORR=rimp2-def2-QZVPPD, SCF_ALGORITHM=GDM, xc_grid=000099000590, mem_total=3750, num_basis=378, num_pairs=72180, num_threads=1
C  -0.0503000000  0.6685000000  0.0000000000
O  -0.0503000000  -0.7585000000  0.0000000000
H  -1.0807000000  1.0417000000  0.0000000000
H  0.4650000000  1.0417000000  0.8924000000
H  0.4650000000  1.0417000000  -0.8924000000
H  0.8544000000  -1.0677000000  0.0000000000