6
charge=0, multiplicity=1, basis=AUG-PC-3, multipole_field={'X': 0.01}, AUX_BASIS_CORR=rimp2-def2-QZVPPD, SCF_ALGORITHM=GDM, xc_grid=000099000590, mem_total=3750, num_basis=337, num_pairs=57534, num_threads=1
     Li        0.0000000000    0.0000000000   -1.4298000000
        B         0.0000000000    0.0000000000    0.5063000000
        H         0.0000000000    0.0000000000    1.6973000000
        H         0.0000000000    1.1405000000    0.0202000000
        H         0.9877000000   -0.5702000000    0.0202000000
       H        -0.9877000000   -0.5702000000    0.0202000000