3
charge=0, multiplicity=1, basis=AUG-PC-3, multipole_field={'Y': -0.01}, AUX_BASIS_CORR=rimp2-def2-QZVPPD, SCF_ALGORITHM=GDM, xc_grid=000099000590, mem_total=3750, num_basis=229, num_pairs=26814, num_threads=1
        C         1.0848000000    0.6433000000    0.0000000000
        N         0.0000000000    1.1328000000    0.0000000000
        Na       -0.5917000000   -1.0717000000    0.0000000000