4
charge=0, multiplicity=1, basis=AUG-PC-3, multipole_field={'X': -0.01}, AUX_BASIS_CORR=rimp2-def2-QZVPPD, SCF_ALGORITHM=GDM, xc_grid=000099000590, mem_total=3750, num_basis=278, num_pairs=39279, num_threads=1
          Cl      0.0000000000     0.0000000000     0.0000000000
          N       0.0000000000     0.0000000000     1.7475500000
          H       0.9877064288     0.0000000000     1.9857191054
          H      -0.3322887804    -0.9301334032     1.9857191227