3
charge=0, multiplicity=1, basis=AUG-PC-3, multipole_field={'Y': 0.01}, AUX_BASIS_CORR=rimp2-def2-QZVPPD, SCF_ALGORITHM=GDM, xc_grid=000099000590, mem_total=3750, num_basis=228, num_pairs=26539, num_threads=1
O1      0.0362  0       1.0964
H2      -0.9048 0       1.3042
Cl3     0.0362  0       -0.5927