3
charge=0, multiplicity=1, basis=AUG-PC-3, AUX_BASIS_CORR=rimp2-def2-QZVPPD, SCF_ALGORITHM=GDM, xc_grid=000099000590, mem_total=3750, num_basis=267, num_pairs=36246, num_threads=1
S  0.0000000000  0.0000000000  0.0000000000
O  0.0000000000  1.2371000000  0.7215000000
O  0.0000000000  -1.2371000000  0.7215000000