6
charge=0, multiplicity=1, basis=AUG-PC-3, multipole_field={'X': -0.01}, AUX_BASIS_CORR=rimp2-def2-QZVPPD, SCF_ALGORITHM=GDM, xc_grid=000099000590, mem_total=3750, num_basis=378, num_pairs=71907, num_threads=1
C1      0.0000  0.0000  0.6695
C2      0.0000  0.0000  -0.6695
H3      0.0000  0.9289  1.2321
H4      0.0000  -0.9289 1.2321
H5      0.0000  0.9289  -1.2321
H6      0.0000  -0.9289 -1.2321