6
charge=0, multiplicity=1, basis=AUG-PC-3, AUX_BASIS_CORR=rimp2-def2-QZVPPD, SCF_ALGORITHM=GDM, xc_grid=000099000590, mem_total=3750, num_basis=378, num_pairs=72185, num_threads=1
N  0.0000000000  0.7230000000  -0.1123000000
N  0.0000000000  -0.7230000000  -0.1123000000
H  -0.4470000000  1.0031000000  0.7562000000
H  0.4470000000  -1.0031000000  0.7562000000
H  0.9663000000  1.0031000000  0.0301000000
H  -0.9663000000  -1.0031000000  0.0301000000