5
charge=0, multiplicity=2, basis=AUG-PC-3, AUX_BASIS_CORR=rimp2-def2-QZVPPD, SCF_ALGORITHM=GDM, xc_grid=000099000590, mem_total=3750, num_basis=328, num_pairs=54215, num_threads=1
C  0.0488000000  0.7245000000  0.0000000000
C  0.0488000000  -0.5915000000  0.0000000000
H  -0.6836000000  1.5182000000  0.0000000000
H  -0.8763000000  -1.1584000000  0.0000000000
H  0.9739000000  -1.1584000000  0.0000000000