3
charge=0, multiplicity=1, basis=AUG-PC-3, AUX_BASIS_CORR=rimp2-def2-QZVPPD, SCF_ALGORITHM=GDM, xc_grid=000099000590, mem_total=3750, num_basis=228, num_pairs=26539, num_threads=1
O  0.0362000000  0.0000000000  1.0964000000
H  -0.9048000000  0.0000000000  1.3042000000
Cl  0.0362000000  0.0000000000  -0.5927000000