5
charge=0, multiplicity=1, basis=AUG-PC-3, multipole_field={'Y': -0.01}, AUX_BASIS_CORR=rimp2-def2-QZVPPD, SCF_ALGORITHM=GDM, xc_grid=000099000590, mem_total=3750, num_basis=328, num_pairs=54448, num_threads=1
N1      -0.0094 0.7040  0.0000
O2      -0.0094 -0.7490 0.0000
H3      -0.9525 -0.9386 0.0000
H4      0.5469  1.0012  0.7965
H5      0.5469  1.0012  -0.7965