4
charge=0, multiplicity=1, basis=AUG-PC-3, multipole_field={'Y': -0.01}, AUX_BASIS_CORR=rimp2-def2-QZVPPD, SCF_ALGORITHM=GDM, xc_grid=000099000590, mem_total=3750, num_basis=278, num_pairs=39309, num_threads=1
O1      0.0000  0.7375  -0.0528
O2      0.0000  -0.7375 -0.0528
H3      0.8190  0.8170  0.4220
H4      -0.8190 -0.8170 0.4220