3
charge=0, multiplicity=3, basis=AUG-PC-3, AUX_BASIS_CORR=rimp2-def2-QZVPPD, SCF_ALGORITHM=GDM, xc_grid=000099000590, mem_total=3750, num_basis=189, num_pairs=18323, num_threads=1
C  0.0000000000  0.0000000000  0.1027000000
H  0.0000000000  1.0042000000  -0.3081000000
H  0.0000000000  -1.0042000000  -0.3081000000