4
charge=0, multiplicity=1, basis=AUG-PC-3, multipole_field={'X': 0.01}, AUX_BASIS_CORR=rimp2-def2-QZVPPD, SCF_ALGORITHM=GDM, xc_grid=000099000590, mem_total=3750, num_basis=317, num_pairs=50315, num_threads=1
C1      0.0000  0.0000  -1.8149
C2      0.0000  0.0000  -0.6116
Cl3     0.0000  0.0000  1.0252
H4      0.0000  0.0000  -2.8699