5
charge=0, multiplicity=1, basis=AUG-PC-3, AUX_BASIS_CORR=rimp2-def2-QZVPPD, SCF_ALGORITHM=GDM, xc_grid=000099000590, mem_total=3750, num_basis=328, num_pairs=54420, num_threads=1
C  0.0000000000  0.0000000000  0.0000000000
Cl  0.0000000000  0.0000000000  1.7810000000
H  1.0424000000  0.0000000000  -0.3901000000
H  -0.5212000000  0.9027000000  -0.3901000000
H  -0.5212000000  -0.9027000000  -0.3901000000