5
charge=0, multiplicity=1, basis=AUG-PC-3, AUX_BASIS_CORR=rimp2-def2-QZVPPD, SCF_ALGORITHM=GDM, xc_grid=000099000590, mem_total=3750, num_basis=328, num_pairs=54287, num_threads=1
Si  0.0000000000  0.0000000000  0.4986000000
F  0.0000000000  0.0000000000  -1.0959000000
H  0.0000000000  1.4017000000  0.9613000000
H  -1.2139000000  -0.7008000000  0.9613000000
H  1.2139000000  -0.7008000000  0.9613000000