3
charge=0, multiplicity=1, basis=AUG-PC-3, AUX_BASIS_CORR=rimp2-def2-QZVPPD, SCF_ALGORITHM=GDM, xc_grid=000099000590, mem_total=3750, num_basis=267, num_pairs=36038, num_threads=1
O  0.0000000000  0.0000000000  0.7788000000
Cl  0.0000000000  1.3966000000  -0.1832000000
Cl  0.0000000000  -1.3966000000  -0.1832000000