5
charge=0, multiplicity=1, basis=AUG-PC-3, multipole_field={'X': -0.01}, AUX_BASIS_CORR=rimp2-def2-QZVPPD, SCF_ALGORITHM=GDM, xc_grid=000099000590, mem_total=3750, num_basis=328, num_pairs=54420, num_threads=1
C1      0.0000  0.0000  0.0000
Cl2     0.0000  0.0000  1.7810
H3      1.0424  0.0000  -0.3901
H4      -0.5212 0.9027  -0.3901
H5      -0.5212 -0.9027 -0.3901