3
charge=0, multiplicity=2, basis=AUG-PC-3, AUX_BASIS_CORR=rimp2-def2-QZVPPD, SCF_ALGORITHM=GDM, xc_grid=000099000590, mem_total=3750, num_basis=228, num_pairs=26578, num_threads=1
C  0.0000000000  0.0000000000  0.0000000000
H  1.0800000000  0.0000000000  0.0000000000
O  -0.5899000000  1.0427000000  0.0000000000