3
charge=0, multiplicity=1, basis=AUG-PC-3, AUX_BASIS_CORR=rimp2-def2-QZVPPD, SCF_ALGORITHM=GDM, xc_grid=000099000590, mem_total=3750, num_basis=228, num_pairs=26555, num_threads=1
B  0.0000000000  0.0000000000  1.1660000000
H  0.0000000000  0.0000000000  0.0000000000
O  0.0000000000  0.0000000000  2.3660000000