4
charge=0, multiplicity=1, basis=AUG-PC-3, AUX_BASIS_CORR=rimp2-def2-QZVPPD, SCF_ALGORITHM=GDM, xc_grid=000099000590, mem_total=3750, num_basis=239, num_pairs=29117, num_threads=1
P  0.0000000000  0.0000000000  0.0000000000
H  0.0000000000  -1.1932000000  -0.7717000000
H  1.0333000000  0.5966000000  -0.7717000000
H  -1.0333000000  0.5966000000  -0.7717000000