6
charge=0, multiplicity=1, basis=AUG-PC-3, multipole_field={'X': -0.01}, AUX_BASIS_CORR=rimp2-def2-QZVPPD, SCF_ALGORITHM=GDM, xc_grid=000099000590, mem_total=3750, num_basis=378, num_pairs=70976, num_threads=1
        P         0.0000000000    1.1100000000   -0.0858000000
        P         0.0000000000   -1.1100000000   -0.0858000000
        H        -0.2026000000    1.3478000000    1.2905000000
        H         1.4045000000    1.2216000000   -0.0032000000
        H         0.2026000000   -1.3478000000    1.2905000000
        H        -1.4045000000   -1.2216000000   -0.0032000000