5
charge=0, multiplicity=1, basis=AUG-PC-3, multipole_field={'Z': 0.01}, AUX_BASIS_CORR=rimp2-def2-QZVPPD, SCF_ALGORITHM=GDM, xc_grid=000099000590, mem_total=3750, num_basis=367, num_pairs=68014, num_threads=1
C1      0.0000  0.4199  0.0000
O2      -1.0543 -0.4121 0.0000
O3      1.1506  0.0721  0.0000
H4      -0.0799 1.5140  0.0000
H5      -0.6905 -1.3134 0.0000