6
charge=0, multiplicity=1, basis=def2-QZVPPD, AUX_BASIS_CORR=rimp2-def2-QZVPPD, SCF_ALGORITHM=GDM, xc_grid=000099000590, mem_total=3750, num_basis=297, num_pairs=44220, num_threads=1
H  0.0000000000  0.9285030000  0.0000000000
H  0.8041070000  -0.4642510000  0.0000000000
H  -0.8041070000  -0.4642510000  0.0000000000
F  0.0000000000  -1.3041720000  0.0000000000
F  -1.1294460000  0.6520860000  0.0000000000
F  1.1294460000  0.6520860000  0.0000000000