8
charge=0, multiplicity=1, basis=def2-QZVPPD, AUX_BASIS_CORR=rimp2-def2-QZVPPD, SCF_ALGORITHM=GDM, xc_grid=000099000590, mem_total=3750, num_basis=324, num_pairs=51737, num_threads=1
H  0.6733460000  0.0000000000  -0.2441150000
H  -0.6733460000  0.0000000000  -0.2441150000
H  0.0000000000  0.8099620000  1.8213790000
H  0.0000000000  -0.8391270000  -1.7306430000
N  0.0000000000  0.0000000000  -1.1650330000
N  0.0000000000  0.0000000000  1.2088560000
H  0.0000000000  -0.8099620000  1.8213790000
H  0.0000000000  0.8391270000  -1.7306430000