6
charge=0, multiplicity=1, basis=def2-QZVPPD, AUX_BASIS_CORR=rimp2-def2-QZVPPD, SCF_ALGORITHM=GDM, xc_grid=000099000590, mem_total=3750, num_basis=264, num_pairs=33337, num_threads=1
O  0.0007560000  1.5232520000  0.0000000000
H  -0.0863650000  0.5574930000  0.0000000000
H  -0.8987880000  1.8606430000  0.0000000000
O  0.0007560000  -1.3961260000  0.0000000000
H  0.4865270000  -1.7175730000  0.7661990000
H  0.4865270000  -1.7175730000  -0.7661990000