8
charge=0, multiplicity=1, basis=def2-QZVPPD, AUX_BASIS_CORR=rimp2-def2-QZVPPD, SCF_ALGORITHM=GDM, xc_grid=000099000590, mem_total=3750, num_basis=324, num_pairs=48016, num_threads=1
H  -0.1556110000  0.7181270000  0.0000000000
H  -0.4210260000  2.1155820000  0.8139880000
H  -0.2559880000  -2.1224550000  0.8153160000
H  1.0461780000  -1.5720390000  0.0000000000
N  0.0331040000  1.7183430000  0.0000000000
N  0.0331040000  -1.5943920000  0.0000000000
H  -0.2559880000  -2.1224550000  -0.8153160000
H  -0.4210260000  2.1155820000  -0.8139880000