6
charge=0, multiplicity=1, basis=def2-QZVPPD, AUX_BASIS_CORR=rimp2-def2-QZVPPD, SCF_ALGORITHM=GDM, xc_grid=000099000590, mem_total=3750, num_basis=297, num_pairs=43137, num_threads=1
H  0.0000000000  1.1641500000  0.0000000000
H  1.0081830000  -0.5820750000  0.0000000000
H  -1.0081830000  -0.5820750000  0.0000000000
F  -0.5275200000  -1.3957780000  0.0000000000
F  -0.9450190000  1.1547350000  0.0000000000
F  1.4725400000  0.2410430000  0.0000000000