12
charge=1, multiplicity=1, basis=def2-QZVPPD, mem_total=3750, AUX_BASIS_CORR=rimp2-def2-QZVPPD, SCF_ALGORITHM=GDM, xc_grid=000099000590, num_basis=549, num_pairs=141768, num_threads=1
O  -3.0943373200  0.8581494200  0.0000000000
C  -1.9808516700  0.8845972700  0.0000000000
C  -0.5638685800  0.8447155500  0.0000000000
C  -0.0477956700  -0.6259471800  0.0000000000
C  1.4691906300  -0.6140895500  0.0000000000
H  -0.2363404500  1.4013695400  0.8901382400
H  -0.2363404500  1.4013695400  -0.8901382400
H  -0.4380674900  -1.1342795000  -0.8835020300
H  -0.4380674900  -1.1342795000  0.8835020300
H  1.8684199700  -0.1191222100  -0.8874394200
H  1.8296385600  -1.6433611500  0.0000000000
H  1.8684199700  -0.1191222100  0.8874394200