13
charge=1, multiplicity=2, basis=def2-QZVPPD, AUX_BASIS_CORR=rimp2-def2-QZVPPD, SCF_ALGORITHM=GDM, xc_grid=000099000590, mem_total=3750, num_basis=582, num_pairs=161733, num_threads=1
C  -0.8376637600  1.2185340000  -0.8451793600
C  -0.9085888700  0.3793387400  0.3922381300
O  -1.5748483200  0.6694630600  1.3393819000
C  -0.0905914100  -0.9340530600  0.5154924400
C  1.3726538000  -0.6829254400  0.2221738200
H  -0.7910842600  0.5605789500  -1.7137705300
H  0.1020667100  1.7788909400  -0.7729847600
H  -1.6786523300  1.9069247500  -0.8904455700
H  -0.5797671400  -1.5703666100  -0.2349365200
H  -0.2659541200  -1.3517104900  1.5057472100
H  1.5475995200  -0.3167146200  -0.7885127600
H  1.8757971400  -1.6507937200  0.3237294200
H  1.8290330400  -0.0071664900  0.9470665700