10
charge=1, multiplicity=1, basis=def2-QZVPPD, AUX_BASIS_CORR=rimp2-def2-QZVPPD, SCF_ALGORITHM=GDM, xc_grid=000099000590, mem_total=3750, num_basis=420, num_pairs=86956, num_threads=1
C  -1.2063663000  0.2490810100  -0.3508429200
C  0.2034317100  0.3997301200  -0.1837430000
C  1.0683599700  -0.5219435500  0.4799030500
H  0.5727404300  -1.3079252100  1.0463678900
H  1.9016537300  -0.0408441100  1.0005889900
H  -1.5766058300  0.6550867400  -1.2974119900
H  -1.5842025300  0.9920315600  0.3954945400
H  -1.6105494300  -0.7265122600  -0.0884536000
H  0.6608998400  1.2994190900  -0.6023396400
H  1.5706384100  -0.9981233900  -0.3995633200