15
charge=1, multiplicity=2, basis=def2-QZVPPD, AUX_BASIS_CORR=rimp2-def2-QZVPPD, SCF_ALGORITHM=GDM, xc_grid=000099000590, mem_total=7500, num_basis=705, num_pairs=235709, num_threads=2
C  -0.8464824700  0.4721471000  -0.7568353200
C  0.4096550300  0.2269842200  -1.4067141700
C  1.5354865800  -0.1599174300  -0.6994915800
C  1.5354865800  -0.1599174300  0.6994915800
C  0.4096550300  0.2269842200  1.4067141700
C  -0.8464824700  0.4721471000  0.7568353200
C  -1.4463598600  -0.7110195900  0.0000000000
H  -1.5764385400  1.0893858300  -1.2668018000
H  0.4660008300  0.3413495700  -2.4844301600
H  2.4449617600  -0.4033908000  -1.2355279200
H  2.4449617600  -0.4033908000  1.2355279200
H  0.4660008300  0.3413495700  2.4844301600
H  -1.5764385400  1.0893858300  1.2668018000
H  -2.5254839700  -0.7809248800  0.0000000000
H  -0.8945225300  -1.6411725200  0.0000000000