10
charge=1, multiplicity=1, basis=def2-QZVPPD, AUX_BASIS_CORR=rimp2-def2-QZVPPD, SCF_ALGORITHM=GDM, xc_grid=000099000590, mem_total=3750, num_basis=483, num_pairs=111157, num_threads=1
O  -2.4630204100  1.1851807700  0.0000000000
C  -1.3418059600  1.2036473400  0.0000000000
C  0.0338900800  1.2525099400  0.0000000000
H  0.4672564000  2.2489279200  0.0000000000
C  0.7552866700  0.1004234300  0.0000000000
H  1.8361734400  0.2262893500  0.0000000000
C  0.2441628400  -1.2681225400  0.0000000000
H  -0.8424281600  -1.3533144500  0.0000000000
H  0.6552425600  -1.7977708800  0.8694679600
H  0.6552425600  -1.7977708800  -0.8694679600