4
charge=0, multiplicity=2, basis=def2-QZVPPD, AUX_BASIS_CORR=rimp2-def2-QZVPPD, SCF_ALGORITHM=GDM, xc_grid=000099000590, mem_total=3750, num_basis=228, num_pairs=26415, num_threads=1
O  -1.3853045800  -0.0955216900  0.0000000000
C  -0.4154939100  0.5744235700  0.0000000000
O  0.8589328900  0.2465303200  0.0000000000
H  0.9418656000  -0.7254322000  0.0000000000