14
charge=1, multiplicity=2, basis=def2-QZVPPD, AUX_BASIS_CORR=rimp2-def2-QZVPPD, SCF_ALGORITHM=GDM, xc_grid=000099000590, mem_total=3750, num_basis=582, num_pairs=159184, num_threads=1
C  -1.7934780400  -0.7658510200  0.0000000000
C  -0.3343245000  -0.8714893800  0.0000000000
C  0.3343245000  0.8714893800  0.0000000000
C  1.7934780400  0.7658510200  0.0000000000
H  -2.1254533000  -1.8285364100  0.0000000000
H  -2.2132873000  -0.3234425100  -0.9038506100
H  -2.2132873000  -0.3234425100  0.9038506100
H  0.1463714800  -1.2152923300  -0.9137171300
H  0.1463714800  -1.2152923300  0.9137171300
H  -0.1463714800  1.2152923300  0.9137171300
H  -0.1463714800  1.2152923300  -0.9137171300
H  2.2132873000  0.3234425100  0.9038506100
H  2.1254533000  1.8285364100  0.0000000000
H  2.2132873000  0.3234425100  -0.9038506100