15
charge=1, multiplicity=2, basis=def2-QZVPPD, AUX_BASIS_CORR=rimp2-def2-QZVPPD, SCF_ALGORITHM=GDM, xc_grid=000099000590, mem_total=7500, num_basis=705, num_pairs=227379, num_threads=2
C  -2.0511532600  -0.1124286100  0.0904512000
C  -1.4212224100  1.1515280900  0.0624095000
C  -0.0632332100  1.2168420900  0.0038364900
C  0.7226812500  0.0161016000  -0.0262899100
C  2.1827044600  0.1112351100  -0.0910305100
C  0.0647712000  -1.2484425900  0.0006649900
C  -1.2940726000  -1.3115740000  0.0591532000
H  -3.1332590400  -0.1692069100  0.1358412000
H  -2.0226608600  2.0515443500  0.0875001000
H  0.4484519300  2.1723141600  -0.0195952100
H  2.6809891000  -0.8538095600  -0.0416492100
H  2.5561662900  0.7706834600  0.7037095500
H  2.4715528800  0.6207381500  -1.0235221800
H  0.6648912400  -2.1501434600  -0.0239836100
H  -1.8066069400  -2.2653818700  0.0825044000