8
charge=1, multiplicity=2, basis=def2-QZVPPD, AUX_BASIS_CORR=rimp2-def2-QZVPPD, SCF_ALGORITHM=GDM, xc_grid=000099000590, mem_total=3750, num_basis=384, num_pairs=72250, num_threads=1
C  1.2697530300  0.9193671900  -0.3974346600
C  0.3110301900  0.7388724800  0.3963274700
C  -0.3110301900  -0.7388724800  0.3963274700
C  -1.2697530300  -0.9193671900  -0.3974346600
H  2.0547437700  0.9163213500  -1.1322981500
H  -0.1459240300  1.3937844600  1.1334053400
H  0.1459240300  -1.3937844600  1.1334053400
H  -2.0547437700  -0.9163213500  -1.1322981500