16
charge=1, multiplicity=2, basis=def2-QZVPPD, AUX_BASIS_CORR=rimp2-def2-QZVPPD, SCF_ALGORITHM=GDM, xc_grid=000099000590, mem_total=7500, num_basis=711, num_pairs=231763, num_threads=2
C  -2.3146441800  0.1060193000  0.5291545500
C  -0.9269911800  -0.2222973200  0.2057944200
C  0.0285595000  0.7916262500  -0.2894417200
C  1.4966304100  0.4743014300  -0.0014045900
C  1.9497665400  -0.8357069700  -0.5370918300
O  -0.5636187500  -1.4208133100  0.3619222300
H  -2.7194396100  0.8082227500  -0.2037492100
H  -2.3028906800  0.6438782400  1.4879946200
H  -2.9337117300  -0.7832458700  0.6250002500
H  -0.2688381300  1.7718368300  0.0902575100
H  -0.1568969200  0.8377257600  -1.3759880000
H  2.0978381500  1.2755600900  -0.4569410300
H  1.6852039200  0.5409922300  1.0735679900
H  0.4176042300  -1.5332291200  0.1187700200
H  2.7665478000  -1.3598543100  -0.0549264000
H  1.7448806300  -1.0950159900  -1.5729188100