11
charge=1, multiplicity=2, basis=def2-QZVPPD, AUX_BASIS_CORR=rimp2-def2-QZVPPD, SCF_ALGORITHM=GDM, xc_grid=000099000590, mem_total=3750, num_basis=513, num_pairs=129002, num_threads=1
C  0.0000000000  1.1536607900  0.2077274300
C  0.0000000000  0.7000619200  -1.1100972700
C  0.0000000000  -0.7000619200  -1.1100972700
C  0.0000000000  -1.1536607900  0.2077274300
C  0.0000000000  0.0000000000  1.1358002000
H  0.0000000000  2.1920743100  0.5169222200
H  0.0000000000  1.3309039200  -1.9894509700
H  0.0000000000  -1.3309039200  -1.9894509700
H  0.0000000000  -2.1920743100  0.5169222200
H  -0.8717905900  0.0000000000  1.8069984900
H  0.8717905900  0.0000000000  1.8069984900