7
charge=0, multiplicity=2, basis=def2-QZVPPD, AUX_BASIS_CORR=rimp2-def2-QZVPPD, SCF_ALGORITHM=GDM, xc_grid=000099000590, mem_total=3750, num_basis=291, num_pairs=42911, num_threads=1
C  -0.6083459200  -0.1111118500  0.0000000000
C  0.8554970000  0.0977103400  0.0000000000
H  1.3970516500  0.2429367200  -0.9257763000
H  1.3970516500  0.2429367200  0.9257763000
H  -0.9417742300  -0.6578093800  0.8858331100
H  -0.9417742300  -0.6578093800  -0.8858331100
H  -1.1577059300  0.8431468300  0.0000000000