14
charge=1, multiplicity=1, basis=def2-QZVPPD, mem_total=7500, AUX_BASIS_CORR=rimp2-def2-QZVPPD, SCF_ALGORITHM=GDM, xc_grid=000099000590, num_basis=672, num_pairs=211022, num_threads=2
C  -1.4420997800  -0.6944786500  0.0000000000
C  -1.4420997800  0.6944786500  0.0000000000
C  -0.3561692300  1.5604793700  0.0000000000
C  0.9979640100  1.2514072900  0.0000000000
C  1.6006100000  0.0000000000  0.0000000000
C  0.9979640100  -1.2514072900  0.0000000000
C  -0.3561692300  -1.5604793700  0.0000000000
H  -2.4201301300  1.1654732400  0.0000000000
H  -2.4201301300  -1.1654732400  0.0000000000
H  -0.5977227800  -2.6187946100  0.0000000000
H  1.6747820100  -2.1001102200  0.0000000000
H  2.6861417900  0.0000000000  0.0000000000
H  1.6747820100  2.1001102200  0.0000000000
H  -0.5977227800  2.6187946100  0.0000000000