15
charge=1, multiplicity=2, basis=def2-QZVPPD, AUX_BASIS_CORR=rimp2-def2-QZVPPD, SCF_ALGORITHM=GDM, xc_grid=000099000590, mem_total=7500, num_basis=648, num_pairs=187128, num_threads=2
C  -2.3983919000  0.0752821700  -0.3706237900
C  -1.1615743500  -0.3633116100  0.3712992300
O  0.0000000000  0.0000000000  -0.3299099700
C  1.1615743500  0.3633116100  0.3712992300
C  2.3983919000  -0.0752821700  -0.3706237900
H  -3.2657426800  -0.3346086300  0.1485722000
H  -2.4016924200  -0.2901983700  -1.3974975500
H  -2.4690355700  1.1641891200  -0.3718971500
H  -1.1065417500  -1.4761155300  0.3704684500
H  -1.0865478500  -0.0393381000  1.4146335900
H  1.0865478500  0.0393381000  1.4146335900
H  1.1065417500  1.4761155300  0.3704684500
H  2.4690355700  -1.1641891200  -0.3718971500
H  3.2657426800  0.3346086300  0.1485722000
H  2.4016924200  0.2901983700  -1.3974975500