11
charge=1, multiplicity=2, basis=def2-QZVPPD, AUX_BASIS_CORR=rimp2-def2-QZVPPD, SCF_ALGORITHM=GDM, xc_grid=000099000590, mem_total=3750, num_basis=543, num_pairs=142430, num_threads=1
N  0.0000000000  0.0000000000  -1.4330741400
C  1.1930270800  0.0000000000  -0.9119873800
C  1.2082993100  0.0000000000  0.4831235900
C  0.0000000000  0.0000000000  1.1646126100
C  -1.2082993100  0.0000000000  0.4831235900
C  -1.1930270800  0.0000000000  -0.9119873800
H  2.0712213100  0.0000000000  -1.5499489600
H  2.1666046800  0.0000000000  0.9885643700
H  0.0000000000  0.0000000000  2.2489583000
H  -2.1666046800  0.0000000000  0.9885643700
H  -2.0712213100  0.0000000000  -1.5499489600