10
charge=0, multiplicity=2, basis=def2-QZVPPD, AUX_BASIS_CORR=rimp2-def2-QZVPPD, SCF_ALGORITHM=GDM, xc_grid=000099000590, mem_total=3750, num_basis=420, num_pairs=87315, num_threads=1
C  -1.0964061900  0.3609087300  -0.1456452100
C  0.4249028200  0.3606423300  -0.1699916100
C  1.0251280700  -0.8539725600  0.4268876300
H  0.4775624300  -1.7889933300  0.4427441300
H  2.0623720500  -0.8705536700  0.7368347600
H  -1.5022880200  1.2583697900  -0.6171783500
H  -1.4703933200  0.3189160200  0.8799660700
H  -1.4942065200  -0.5061907400  -0.6794747500
H  0.8087790500  1.2526255900  0.3398367300
H  0.7645496500  0.4682478400  -1.2139793900