6
charge=1, multiplicity=1, basis=def2-QZVPPD, AUX_BASIS_CORR=rimp2-def2-QZVPPD, SCF_ALGORITHM=GDM, xc_grid=000099000590, mem_total=3750, num_basis=291, num_pairs=42397, num_threads=1
C  0.0000000000  0.0000000000  -0.4854776200
C  0.0000000000  0.0000000000  0.9324422900
O  0.0000000000  0.0000000000  2.0432474700
H  0.5212136500  -0.9027685200  -0.8300707100
H  0.5212136500  0.9027685200  -0.8300707100
H  -1.0424272900  0.0000000000  -0.8300707100