11
charge=1, multiplicity=1, basis=def2-QZVPPD, AUX_BASIS_CORR=rimp2-def2-QZVPPD, SCF_ALGORITHM=GDM, xc_grid=000099000590, mem_total=3750, num_basis=486, num_pairs=113378, num_threads=1
C  -1.1698671000  -0.1702645000  0.9187011900
C  0.2943839100  -0.0672141000  0.6289058700
O  0.5270806300  -0.5437626300  -0.7748970400
C  0.9860683700  0.1873537200  -1.6488887100
H  -1.3145665100  0.1126466200  1.9642406700
H  -1.5309775200  -1.1910859800  0.7934671800
H  -1.7566476400  0.5098592500  0.3002920400
H  0.9003383600  -0.7597935500  1.2124239100
H  0.6976361400  0.9455828800  0.6842685700
H  1.1082025700  -0.2490467100  -2.6410960800
H  1.2583487900  1.2257250000  -1.4374175900