9
charge=1, multiplicity=2, basis=def2-QZVPPD, AUX_BASIS_CORR=rimp2-def2-QZVPPD, SCF_ALGORITHM=GDM, xc_grid=000099000590, mem_total=3750, num_basis=450, num_pairs=96742, num_threads=1
O  -0.3067051200  2.6451166100  0.0000000000
C  -0.6318432500  1.5679769300  0.0000000000
C  -1.0409641800  0.2615456300  0.0000000000
H  -2.1194689600  0.1217111200  0.0000000000
C  -0.1408703100  -0.8047014500  0.0000000000
H  -0.5877155400  -1.7936908200  0.0000000000
C  1.2333056900  -0.6902468400  0.0000000000
H  1.7403173300  0.2698764300  0.0000000000
H  1.8539443400  -1.5775876100  0.0000000000