10
charge=1, multiplicity=2, basis=def2-QZVPPD, AUX_BASIS_CORR=rimp2-def2-QZVPPD, SCF_ALGORITHM=GDM, xc_grid=000099000590, mem_total=3750, num_basis=450, num_pairs=97924, num_threads=1
C  1.4949187900  0.0000000000  -0.4626135200
C  0.7044557100  0.0000000000  0.6672882600
C  -0.7044557100  0.0000000000  0.6672882600
C  -1.4949187900  0.0000000000  -0.4626135200
H  2.5755046400  0.0000000000  -0.3728855900
H  1.0849456900  0.0000000000  -1.4661651200
H  1.1982087200  0.0000000000  1.6343759800
H  -1.1982087200  0.0000000000  1.6343759800
H  -1.0849456900  0.0000000000  -1.4661651200
H  -2.5755046400  0.0000000000  -0.3728855900