9
charge=1, multiplicity=1, basis=def2-QZVPPD, AUX_BASIS_CORR=rimp2-def2-QZVPPD, SCF_ALGORITHM=GDM, xc_grid=000099000590, mem_total=3750, num_basis=420, num_pairs=86164, num_threads=1
C  -0.9893316600  -0.2905110700  0.0000000000
C  0.5554361600  -0.2960305800  0.0000000000
C  1.0791297000  1.0266931600  0.0000000000
O  1.4550004200  2.0740606100  0.0000000000
H  -1.3013371800  -1.3342442800  0.0000000000
H  -1.3800342400  0.1955627100  -0.8923354100
H  -1.3800342400  0.1955627100  0.8923354100
H  0.9805855200  -0.7855466300  -0.8886665100
H  0.9805855200  -0.7855466300  0.8886665100