8
charge=1, multiplicity=1, basis=def2-QZVPPD, AUX_BASIS_CORR=rimp2-def2-QZVPPD, SCF_ALGORITHM=GDM, xc_grid=000099000590, mem_total=3750, num_basis=354, num_pairs=62261, num_threads=1
C  -1.1781980300  0.0000000000  0.1655842500
C  0.0000000000  0.0000000000  -0.5430196900
H  0.0000000000  0.0000000000  -1.6273655700
C  1.1781980300  0.0000000000  0.1655842500
H  1.1771407200  0.0000000000  1.2525768000
H  2.1443396400  0.0000000000  -0.3329684200
H  -1.1771407200  0.0000000000  1.2525768000
H  -2.1443396400  0.0000000000  -0.3329684200