16
charge=1, multiplicity=2, basis=def2-QZVPPD, AUX_BASIS_CORR=rimp2-def2-QZVPPD, SCF_ALGORITHM=GDM, xc_grid=000099000590, mem_total=7500, num_basis=711, num_pairs=224315, num_threads=2
C  -2.5432648900  -0.5265902500  0.4935556400
C  -1.0858262800  -0.9216256800  0.3791954300
O  -0.7053824500  -1.9854031600  0.7540078600
C  -0.1091031100  0.0935801000  -0.2505818100
C  1.3436203000  -0.0885860100  0.1221272200
C  2.1686491600  0.9845614700  -0.5748179400
H  -2.8220073100  -0.0097713100  -0.4260865300
H  -2.5899517000  0.1778717100  1.3313470100
H  -3.1629146400  -1.3983490100  0.6872798600
H  -0.5156205400  1.0769718700  0.0051626100
H  -0.2990416200  -0.0730487100  -1.3231616900
H  1.6795497300  -1.0873966900  -0.1673309100
H  1.4628876100  -0.0064601100  1.2054202000
H  2.0948038600  0.9084134600  -1.6611530200
H  3.2186908400  0.8654179600  -0.2990393200
H  1.8649110400  1.9904143400  -0.2759246100