10
charge=1, multiplicity=2, basis=def2-QZVPPD, AUX_BASIS_CORR=rimp2-def2-QZVPPD, SCF_ALGORITHM=GDM, xc_grid=000099000590, mem_total=3750, num_basis=453, num_pairs=100109, num_threads=1
C  -1.2657776100  0.1756814100  0.1530157000
C  0.1983111000  0.1571981100  0.1743530000
C  0.9655518600  -0.6757029500  -0.6796241600
O  0.7668961500  0.9462789700  1.0151269700
H  1.7395853200  0.9159027700  1.0051964700
H  0.4649852300  -1.3321060000  -1.3804386100
H  2.0505158400  -0.6723182500  -0.6493033600
H  -1.6460247300  -0.8412692600  0.3041021100
H  -1.6049112300  0.4758805400  -0.8465623700
H  -1.6691319400  0.8504546600  0.9041342600