13
charge=0, multiplicity=1, basis=def2-QZVPPD, AUX_BASIS_CORR=rimp2-def2-QZVPPD, SCF_ALGORITHM=GDM, xc_grid=000500000974, mem_total=7500, num_basis=642, num_pairs=186910, num_threads=2
C  -1.1988023000  0.6921288000  -0.2686592000
C  -1.1988023000  -0.6921288000  -0.2686592000
C  0.0000000000  -1.3842576000  -0.2686592000
C  1.1988023000  -0.6921288000  -0.2686592000
C  1.1988023000  0.6921288000  -0.2686592000
C  0.0000000000  1.3842576000  -0.2686592000
H  -2.1331550000  -1.2315776000  -0.2686592000
H  0.0000000000  -2.4631552000  -0.2686592000
H  2.1331550000  -1.2315776000  -0.2686592000
H  2.1331550000  1.2315776000  -0.2686592000
H  0.0000000000  2.4631552000  -0.2686592000
H  -2.1331550000  1.2315776000  -0.2686592000
Ne  0.0000000000  0.0000000000  3.2239104000