4
charge=0, multiplicity=1, basis=def2-QZVPPD, AUX_BASIS_CORR=rimp2-def2-QZVPPD, SCF_ALGORITHM=GDM, xc_grid=000500000974, mem_total=3750, num_basis=264, num_pairs=27160, num_threads=1
Ne  1.1071155000  -1.1071155000  1.1071155000
Ne  -1.1071155000  1.1071155000  1.1071155000
Ne  -1.1071155000  -1.1071155000  -1.1071155000
Ne  1.1071155000  1.1071155000  -1.1071155000