5
charge=0, multiplicity=1, basis=def2-QZVPPD, AUX_BASIS_CORR=rimp2-def2-QZVPPD, SCF_ALGORITHM=GDM, xc_grid=000500000974, mem_total=3750, num_basis=258, num_pairs=30060, num_threads=1
H  -1.6666499000  0.0000000000  -0.7302645000
C  -0.6032500000  0.0000000000  -0.7302645000
C  0.6032500000  0.0000000000  -0.7302645000
H  1.6666499000  0.0000000000  -0.7302645000
Ne  0.0000000000  0.0000000000  2.9210582000