8
charge=0, multiplicity=1, basis=def2-QZVPPD, AUX_BASIS_CORR=rimp2-def2-QZVPPD, SCF_ALGORITHM=GDM, xc_grid=000500000974, mem_total=3750, num_basis=324, num_pairs=53089, num_threads=1
C  0.0000000000  0.0000000000  0.7632579000
C  0.0000000000  0.0000000000  -0.7632579000
H  -0.8806855000  0.5084640000  1.1578428000
H  0.0000000000  -1.0169281000  1.1578428000
H  0.8806855000  0.5084640000  1.1578428000
H  0.8806855000  -0.5084640000  -1.1578428000
H  -0.8806855000  -0.5084640000  -1.1578428000
H  0.0000000000  1.0169281000  -1.1578428000