9
charge=0, multiplicity=1, basis=def2-QZVPPD, AUX_BASIS_CORR=rimp2-def2-QZVPPD, SCF_ALGORITHM=GDM, xc_grid=000500000974, mem_total=3750, num_basis=390, num_pairs=70213, num_threads=1
C  0.7632579000  0.0000000000  -0.3998228000
C  -0.7632579000  0.0000000000  -0.3998228000
H  1.1578429000  1.0169279000  -0.3997675000
H  1.1578429000  -0.5085118000  0.4808355000
H  1.1578429000  -0.5084161000  -1.2805363000
H  -1.1578429000  -1.0169279000  -0.3997675000
H  -1.1578429000  0.5085118000  0.4808355000
H  -1.1578429000  0.5084161000  -1.2805363000
Ne  0.0000000000  0.0000000000  3.1985822000