3
charge=0, multiplicity=1, basis=def2-QZVPPD, AUX_BASIS_CORR=rimp2-def2-QZVPPD, SCF_ALGORITHM=GDM, xc_grid=000500000974, mem_total=3750, num_basis=198, num_pairs=15924, num_threads=1
Ne  0.8977229000  1.5549016000  0.0000000000
Ne  0.8977229000  -1.5549016000  0.0000000000
Ne  -1.7954458000  0.0000000000  0.0000000000