3
charge=0, multiplicity=1, basis=def2-QZVPPD, AUX_BASIS_CORR=rimp2-def2-QZVPPD, SCF_ALGORITHM=GDM, xc_grid=000500000974, mem_total=3750, num_basis=237, num_pairs=23976, num_threads=1
Ar  1.1367860000  1.9689711000  0.0000000000
Ar  1.1367860000  -1.9689711000  0.0000000000
Ar  -2.2735719000  0.0000000000  0.0000000000