3
charge=0, multiplicity=1, basis=def2-QZVPPD, AUX_BASIS_CORR=rimp2-def2-QZVPPD, SCF_ALGORITHM=GDM, xc_grid=000500000974, mem_total=3750, num_basis=165, num_pairs=12615, num_threads=1
H  0.0000000000  0.0000000000  -0.4885188000
F  0.0000000000  0.0000000000  -1.4042599000
Ne  0.0000000000  0.0000000000  1.8927787000