4
charge=0, multiplicity=1, basis=def2-QZVPPD, AUX_BASIS_CORR=rimp2-def2-QZVPPD, SCF_ALGORITHM=GDM, xc_grid=000500000974, mem_total=3750, num_basis=316, num_pairs=40530, num_threads=1
Ar  1.4011941000  -1.4011941000  1.4011941000
Ar  -1.4011941000  1.4011941000  1.4011941000
Ar  -1.4011941000  -1.4011941000  -1.4011941000
Ar  1.4011941000  1.4011941000  -1.4011941000