21
charge=-1, multiplicity=2, basis=def2-QZVPP, AUX_BASIS_CORR=rimp2-def2-QZVPPD, SCF_ALGORITHM=GDM, xc_grid=000099000590, mem_total=15000, num_basis=1045, num_pairs=429036, num_threads=4
C  -0.5424850222  -0.5654894537  -0.2554592332
C  0.5571971777  0.3274286407  -0.2445416676
C  1.6313300430  -0.3254816755  -0.9046392028
C  0.6132210317  1.6747801852  0.3849175475
C  1.1889529308  -1.5885734735  -1.3551791175
C  -0.1542171896  -1.7430968397  -0.9472854462
H  -0.7802263642  -2.5988166819  -1.1354155852
H  -1.5109022901  -0.3765744365  0.1774853582
H  2.5812487811  0.1268165572  -1.1242118443
H  1.7700044649  -2.3024588980  -1.9145180818
Mo  -0.1880073067  0.0413561325  -2.5631479325
C  0.3656450383  -0.2245654656  -4.4239594503
O  0.6787991698  -0.4575101402  -5.5231689024
C  -1.1751805413  1.7013163320  -2.8722981222
C  -1.8279955731  -0.7935068630  -3.1440644380
O  -1.8217693267  2.6636947955  -2.9991068139
O  -2.8286732517  -1.3020880358  -3.4918248260
Cl  1.8485694487  2.0780769120  -2.9765533665
H  1.1624908287  2.3611130613  -0.2572574274
H  1.1125775377  1.6382499926  1.3569135277
H  -0.3866795868  2.0773093544  0.5378550244