25
charge=0, multiplicity=1, basis=def2-QZVPP, AUX_BASIS_CORR=rimp2-def2-QZVPPD, SCF_ALGORITHM=GDM, xc_grid=000099000590, mem_total=30000, num_basis=1114, num_pairs=435361, num_threads=8
Si  -1.1180937282  1.8022127681  -0.1282946782
C  0.7488615381  1.6673734950  -0.1360974828
C  1.4158776118  0.9349337750  0.8499238014
H  0.8508919790  0.4610829328  1.6436276609
C  2.7970891391  0.8149326535  0.8382017431
H  3.2962048482  0.2446569024  1.6108155485
C  3.5395110421  1.4280022586  -0.1621512034
H  4.6178908955  1.3363506934  -0.1711732624
C  2.8953194930  2.1624938063  -1.1470679725
H  3.4700675036  2.6469909231  -1.9255944038
C  1.5125796045  2.2807219016  -1.1313758447
H  1.0239051415  2.8641225134  -1.9026021522
C  -1.7559613275  2.0597386968  1.6124709873
C  -1.1093738498  2.9370675294  2.4875790934
H  -0.2141909408  3.4559286771  2.1662437617
C  -1.5880353982  3.1458593068  3.7718963645
H  -1.0734386811  3.8283408762  4.4357656987
C  -2.7249823061  2.4781131493  4.2069902925
H  -3.0983928274  2.6392691006  5.2099653129
C  -3.3779086305  1.6003072112  3.3540036972
H  -4.2611952585  1.0732734864  3.6904811067
C  -2.8951638921  1.3936404252  2.0693148843
H  -3.4109785876  0.6993060403  1.4168058634
H  -1.7598290730  0.5720943464  -0.6672884873
H  -1.4941802956  2.9302575310  -1.0235453291