13
charge=0, multiplicity=1, basis=def2-QZVPP, AUX_BASIS_CORR=rimp2-def2-QZVPPD, SCF_ALGORITHM=GDM, xc_grid=000099000590, mem_total=3750, num_basis=525, num_pairs=134489, num_threads=1
O  2.2499748422  -0.1712380950  0.9111090911
C  3.1425432969  0.1638618800  -0.1577908524
C  2.3010602002  0.8526748165  -1.2204815671
H  3.5987743487  -0.7516811124  -0.5506312220
H  3.9393958342  0.7957506617  0.2359582380
C  0.9514578426  0.1697906814  -1.0356734467
H  2.7117436420  0.7376125633  -2.2216825797
H  2.2178082909  1.9193231305  -1.0095605475
C  0.8968946656  0.0007287949  0.4743024719
H  0.9481217254  -0.8026356664  -1.5291745573
H  0.1158443456  0.7485195670  -1.4244925026
H  0.3142756880  -0.8655556802  0.7893803505
H  0.4701552778  0.8890684588  0.9533671238