46
charge=0, multiplicity=3, basis=def2-QZVPP, mem_total=120000, AUX_BASIS_CORR=rimp2-def2-QZVPPD, SCF_ALGORITHM=GDM, xc_grid=000099000590, num_basis=2131, num_pairs=1320059, num_threads=32
C  -0.4519985559  -1.2500332130  0.3172801818
C  -0.9475317912  -0.1695298337  1.0860254093
C  -0.5413681100  1.0349810892  0.4657343714
H  -1.5420656708  -0.2503511637  1.9794595203
C  0.2065776435  0.6915110772  -0.6724826604
C  0.2597216266  -0.7176975194  -0.7743840202
H  0.6965422166  -1.2790323992  -1.5809662447
H  -0.6118244132  -2.2959572037  0.5159193541
H  -0.7814592686  2.0321025750  0.7946887023
H  0.5933348990  1.3798338258  -1.4020206433
C  -3.5286810892  -1.4496817778  -0.0049942463
C  -3.5546203448  -1.7246702658  -1.3903904781
C  -3.9585205060  -0.5504792432  -2.0448173661
H  -3.2538749185  -2.6388980540  -1.8717475711
C  -4.1733883793  0.4602599378  -1.0798793041
C  -3.9112433077  -0.0992684579  0.1867954886
H  -3.9751509084  0.4132975121  1.1315907079
H  -3.2452191933  -2.1395534238  0.7707407077
H  -4.0095218510  -0.4186804727  -3.1103762775
H  -4.4504893257  1.4806373753  -1.2828191722
V  -1.9528479909  -0.1224005720  -0.9508305504
O  -1.6324241626  0.7420255566  -2.7057546492
P  -1.1073182833  -0.1250264230  -3.9056618103
O  -1.0000337675  -1.6136846455  -3.7160465243
C  0.5129182979  0.5950867819  -4.3314327941
C  0.7169719503  1.9736639448  -4.3210152045
H  -0.1011971344  2.6337161998  -4.0643557165
C  1.9638362071  2.4971694761  -4.6245851936
H  2.1177779826  3.5683990284  -4.6136230890
C  3.0167097211  1.6471824149  -4.9409733058
H  3.9903236729  2.0567124888  -5.1771963705
C  2.8185548155  0.2736563539  -4.9531247317
H  3.6381764676  -0.3895153141  -5.1972410314
C  1.5698593107  -0.2516725061  -4.6509249190
H  1.4013607718  -1.3202873711  -4.6478922735
C  -2.2163671504  0.2949449214  -5.2885012738
C  -2.9353611147  1.4881516450  -5.3080595970
H  -2.8480365201  2.1732717884  -4.4760420586
C  -3.7743361940  1.7800345031  -6.3732914078
H  -4.3339190482  2.7060150581  -6.3818175582
C  -3.8996902759  0.8830204848  -7.4257748865
H  -4.5552717340  1.1107899415  -8.2561410448
C  -3.1890583793  -0.3101033022  -7.4081134142
H  -3.2929024814  -1.0142553992  -8.2232680350
C  -2.3501321383  -0.6040430196  -6.3437754486
H  -1.8082715749  -1.5400323992  -6.3106335714