22
charge=0, multiplicity=2, basis=def2-QZVPP, AUX_BASIS_CORR=rimp2-def2-QZVPPD, SCF_ALGORITHM=GDM, xc_grid=000099000590, mem_total=15000, num_basis=993, num_pairs=418030, num_threads=4
C  -0.9082090037  0.9605484077  0.5667334402
C  -1.3312320867  1.6034134955  -0.6226502036
C  -1.9068900503  0.6252175932  -1.4591039801
H  -1.2312923076  2.6514957120  -0.8492770830
C  -1.8325615866  -0.6139562680  -0.7917382039
C  -1.2165349014  -0.4165350335  0.4609482257
H  -1.0212471821  -1.1715169047  1.2039387946
H  -0.4393248710  1.4391779738  1.4087546675
H  -2.3055098474  0.7871389597  -2.4439898468
H  -2.1420484805  -1.5628020997  -1.2006058893
C  2.4556580003  0.9426067121  -1.9965547687
C  2.2120190817  1.5796559169  -0.7689236793
C  2.1866372752  0.5892071336  0.2421553615
H  2.0425703710  2.6338693093  -0.6246272997
C  2.4173370528  -0.6674425612  -0.3630093138
C  2.5762068226  -0.4417115062  -1.7512259208
H  2.7199631409  -1.1968483494  -2.5061138554
H  2.4902496802  1.4142608186  -2.9626110860
H  2.0262910257  0.7619964404  1.2922665242
H  2.4808080851  -1.6152780759  0.1449609089
Ti  0.3866859162  0.1218272042  -1.1576134346
H  0.1246538657  0.0534751215  -2.8722233575