43
charge=1, multiplicity=4, basis=def2-QZVPP, mem_total=120000, AUX_BASIS_CORR=rimp2-def2-QZVPPD, SCF_ALGORITHM=GDM, xc_grid=000099000590, num_basis=1784, num_pairs=1082112, num_threads=32
C  0.0212345809  1.1730135633  -1.4835941134
C  0.2644522017  2.6511208341  -1.2449400229
H  0.7376271671  0.7375851405  -2.1845287448
H  -0.9675315500  1.0264902816  -1.9235590951
H  0.0075773552  3.2531792041  -2.1223063282
H  1.3238643890  2.8344544188  -1.0589218349
C  -0.1932766855  2.1341921763  1.1237188094
C  -0.5236013385  3.0773263490  -0.0207202390
H  -0.9019150375  2.2286356505  1.9473621430
H  0.7965114813  2.3662448674  1.5318011827
H  -0.3229746659  4.1214613817  0.2386876607
H  -1.5904257904  3.0304834350  -0.2501943069
C  -0.0393992916  -0.1624819119  2.9834452613
C  0.0722448058  -1.4013775639  2.4981130948
H  0.8265186159  0.4324040858  3.2324323327
H  -1.0014049457  0.2641584835  3.2214480238
H  -0.7984234409  -2.0287657631  2.3569530106
H  1.0379109205  -1.8717291094  2.3698188797
Cr  -0.0130584433  0.2057075086  0.3448259317
S  2.4261150066  -0.0820083002  0.4444562064
S  -2.3979524962  -0.3067319776  0.3898635704
C  3.3470049248  0.9670258359  -0.7197613948
C  2.5118954659  -1.7168379624  -0.4000973500
C  1.3594434135  -1.9647919494  -1.3450642918
N  0.0839532544  -1.8119474481  -0.6270588737
C  -1.1186319539  -1.9874849417  -1.4580397092
C  -2.3542372056  -1.8660036822  -0.5960526037
H  2.5307133213  -2.4584740878  0.3963559948
H  3.4658527558  -1.7810899559  -0.9158936417
H  1.4561436098  -2.9665791080  -1.7748169765
H  1.3704738269  -1.2552146109  -2.1658233657
H  -1.1228675095  -2.9641732441  -1.9520459017
H  -1.1038934348  -1.2262401376  -2.2317575593
H  -2.4038079686  -2.6751418821  0.1304696526
H  -3.2598221772  -1.9170667315  -1.1933934114
C  -3.4189002193  0.7660901280  -0.6641789526
H  0.0590739504  -2.5228073991  0.0971663472
H  -3.0021442768  0.8633499233  -1.6598648882
H  -3.4424770699  1.7388692154  -0.1868387524
H  -4.4245210093  0.3605053200  -0.7036285962
H  3.3504518900  1.9674294833  -0.3027842435
H  2.8807449417  0.9830169076  -1.6972646594
H  4.3678526319  0.6042205735  -0.7813222447