55
charge=0, multiplicity=2, basis=def2-QZVPP, mem_total=240000, AUX_BASIS_CORR=rimp2-def2-QZVPPD, SCF_ALGORITHM=GDM, xc_grid=000099000590, num_basis=2436, num_pairs=1696202, num_threads=64
Rh  0.1760982492  -0.4350423748  -1.5904241555
Cl  -1.4174026003  -2.2081060149  -1.5463265699
Cl  1.6366392049  1.4338319857  -1.4949551550
N  -1.0529944358  0.4960385100  -2.9325609973
N  1.3177433573  -1.3606419959  -0.1643499894
C  -1.2360622824  0.1628421315  -4.1544500470
C  2.2787727040  -2.1857823545  -0.3481466380
C  -2.0644551519  1.5259542282  -2.5621253749
C  -3.0615684919  1.3695694780  -3.7183744958
C  -1.3963436736  2.8923437574  -2.5727849137
C  -2.6769311848  1.2146271027  -1.2125538216
H  -1.0100348596  3.1274812315  -3.5634209697
H  -0.5606418762  2.9080904456  -1.8802061737
H  -2.1158755721  3.6609483435  -2.2905310993
H  -3.0632539347  0.1999054554  -1.1802093033
H  -3.4808310732  1.9169486432  -0.9934517349
H  -1.9249129856  1.3155356488  -0.4313629129
C  1.1015029290  -1.2013159567  1.3041685257
C  2.3942783388  -1.8215652521  1.8536640724
C  -0.1219715888  -2.0095709674  1.7102313316
C  0.9525312637  0.2544618261  1.6910191847
H  1.7785242545  0.8512559389  1.3173532177
H  0.8973477484  0.3437798886  2.7759870981
H  0.0382206416  0.6674200523  1.2713914942
H  -0.0008564722  -3.0610847973  1.4586037326
H  -1.0068300404  -1.6538071256  1.1923884551
H  -0.2793574864  -1.9210425266  2.7851272334
O  2.9217338551  -2.6156050926  0.7558975337
H  2.2343606937  -2.4813876681  2.7006055467
H  3.1427038866  -1.0700400069  2.1039055936
O  -2.2986755011  0.7143061933  -4.7726008916
H  -3.4297924772  2.3130746459  -4.1082827846
H  -3.8960500975  0.7168148311  -3.4635631436
C  -0.4025423002  -0.7841775751  -4.9437096313
C  2.7309968849  -2.7631481832  -1.6461271581
C  2.5413658549  -1.8123925037  -2.7906210508
H  2.1439269159  -3.6693013509  -1.8109686404
H  3.7657528928  -3.0755388477  -1.5343578073
C  1.2977625967  -1.7893260360  -3.4306672687
C  1.0019191446  -0.8468359926  -4.4209414600
C  1.9714314503  0.0824438773  -4.7903702652
C  3.2124848735  0.0209463410  -4.1647763533
C  1.6770198620  1.1745565491  -5.7703607237
C  3.5145969472  -0.8844125479  -3.1526080607
H  3.9591079023  0.7576340846  -4.4327633503
C  4.8168899358  -0.7858977561  -2.4232679796
H  5.4559891248  -0.0269014320  -2.8661368889
H  5.3695443028  -1.7258808509  -2.4241635857
H  4.6510561058  -0.5045953346  -1.3827219464
H  0.8932579317  1.8326138472  -5.3935458842
H  1.3400878002  0.7892590320  -6.7332514628
H  2.5566104714  1.7868853150  -5.9493193402
H  -0.4494970224  -0.4872365721  -5.9892956241
H  -0.8789297149  -1.7636745981  -4.8712844901
H  0.5857226984  -2.5768976695  -3.2275028759