40
charge=0, multiplicity=4, basis=def2-QZVPP, mem_total=60000, AUX_BASIS_CORR=rimp2-def2-QZVPPD, SCF_ALGORITHM=GDM, xc_grid=000099000590, num_basis=1788, num_pairs=818826, num_threads=16
Cr  -2.2503214113  -3.4506355362  1.5285932899
Cl  -3.4782783749  -4.5815915262  3.1496341423
Cl  -1.7527856313  -5.3217177543  0.2897121270
C  -2.5800077502  -1.5240765065  3.6779656508
O  -2.7595736152  -1.6475410809  2.4524469815
N  -2.7928184766  -0.3851993695  4.3380678720
C  -3.2368631713  0.8145957030  3.6574053766
C  -2.5696155589  -0.3010456260  5.7659652984
H  -2.2345594254  -2.3595500209  4.2830180991
H  -3.3396387788  0.6001318494  2.6008112132
H  -2.5109538395  1.6158062021  3.7957757077
H  -4.1964128828  1.1433951722  4.0569021498
H  -2.2348426924  -1.2618629178  6.1431275767
H  -3.4891251492  -0.0233208297  6.2818222926
H  -1.8080982902  0.4462050569  5.9901561464
H  -6.0549331307  -5.4852499912  -1.3392946042
H  -7.8589823166  -4.9689150907  0.5111993879
C  -5.3365706286  -5.4405090256  -0.5211972999
C  -7.0243553724  -4.8982828146  1.2078219776
N  -5.8116186057  -4.5322297845  0.5082532146
H  -4.3726712142  -5.0988494280  -0.8758414534
C  -5.0588749828  -3.5248602769  0.9309813744
O  -3.9845944836  -3.1844564685  0.3957568486
H  -7.2560872291  -4.1527942956  1.9622555633
H  -5.4727012429  -2.9743888675  1.7795732697
H  -5.2129667120  -6.4353487554  -0.0967557260
H  -6.8953080888  -5.8610311265  1.7015068386
H  -0.4205184934  -0.9181787784  -3.0366126586
H  1.5513940255  -2.5846072759  -2.9270159080
C  -0.2816603455  -0.7530899263  -1.9682980071
C  1.6213662754  -2.3360819170  -1.8678350767
N  0.3326977274  -1.9158140848  -1.3593023576
H  -1.2441342747  -0.5811768322  -1.5026557099
C  -0.2662751905  -2.5872337170  -0.3764711589
O  -1.3721156782  -2.2624466591  0.0945940909
H  1.9620132649  -3.2126661384  -1.3265182662
H  0.2743679665  -3.4521682850  0.0012413494
H  0.3508041259  0.1240971676  -1.8310556287
H  2.3579662744  -1.5415511152  -1.7463507750
Cl  -0.2722466218  -3.4753793290  2.7159767914