55
charge=0, multiplicity=2, basis=def2-QZVPP, mem_total=240000, AUX_BASIS_CORR=rimp2-def2-QZVPPD, SCF_ALGORITHM=GDM, xc_grid=000099000590, num_basis=2436, num_pairs=1616300, num_threads=64
Rh  0.0362067219  -0.4251677905  -1.4298582237
Cl  -1.8696632699  -1.1697582476  -0.1425567511
Cl  1.2279420734  1.7102837065  -1.1890539114
N  -1.2433591606  0.6017162650  -2.6802791086
N  1.2916552973  -1.1098552798  0.0550203619
C  -1.0585530950  0.7180096893  -3.9388464942
C  2.4464959430  -1.6082287136  -0.1678371428
C  -2.3651012015  1.5379253961  -2.2997582235
C  -2.2991102147  2.5020007043  -3.4831970103
C  -2.1695485315  2.2477792836  -0.9810992679
C  -3.6699424024  0.7502860329  -2.3320535730
H  -1.2086298376  2.7487833153  -0.9416593859
H  -2.2257340313  1.5413388147  -0.1597668273
H  -2.9648725215  2.9817271351  -0.8511245133
H  -3.8365785474  0.3107633126  -3.3148405078
H  -4.5032562891  1.4166169851  -2.1097984364
H  -3.6498805995  -0.0450755591  -1.5967303732
C  1.1743814042  -0.8849612519  1.5437191355
C  2.6570473336  -0.8618590717  1.9128076965
C  0.4952824758  -2.1045450013  2.1553588806
C  0.4829955047  0.4012691735  1.9310543187
H  0.9245568285  1.2520266494  1.4235024074
H  0.5710877804  0.5407228415  3.0086543590
H  -0.5717137759  0.3568191278  1.6824748491
H  1.0536413605  -3.0136384165  1.9348087868
H  -0.5104597557  -2.2130511853  1.7675650449
H  0.4453180180  -1.9883974869  3.2379323394
O  3.2973244211  -1.6522251764  0.8704464038
H  2.8738170858  -1.3246129229  2.8697678858
H  3.0798176357  0.1413519202  1.8669439941
O  -1.7239301854  1.7053904174  -4.5597206140
H  -1.6249169892  3.3383709802  -3.3007795465
H  -3.2706515368  2.8582815569  -3.8087138604
C  -0.2323795197  -0.1726591547  -4.7672814381
C  2.9031979310  -2.1964862679  -1.4358854210
C  2.6807420696  -1.3617247855  -2.6679039660
H  2.3548537543  -3.1363852849  -1.5605264404
H  3.9461207865  -2.4614549315  -1.3205251455
C  1.4335427067  -0.8049968982  -2.9656322317
C  1.1731068763  -0.3900730600  -4.2752182992
H  -0.2250202581  -1.8297483804  -2.0564206901
C  2.2165706215  -0.2906340198  -5.2059058381
C  3.4867183398  -0.6889401716  -4.8235409429
C  2.0084612560  0.2164275328  -6.6040030652
C  3.7332538751  -1.2680745065  -3.5900586637
H  4.3019107573  -0.5906516254  -5.5294899599
C  5.1127448691  -1.7838484912  -3.2969281488
H  5.7947110423  -1.5142999354  -4.0994077411
H  5.1376923550  -2.8708905805  -3.2067003381
H  5.5204607517  -1.3725101029  -2.3737470103
H  1.3935044895  -0.4580602576  -7.2018422702
H  2.9629023941  0.3147645584  -7.1149835255
H  1.5288302137  1.1947855674  -6.6229592788
H  -0.2437538709  0.2066929211  -5.7808069671
H  -0.7392693799  -1.1427593295  -4.7880453105