23
charge=2, multiplicity=2, basis=def2-QZVPP, AUX_BASIS_CORR=rimp2-def2-QZVPPD, SCF_ALGORITHM=GDM, xc_grid=000099000590, mem_total=15000, num_basis=922, num_pairs=326180, num_threads=4
Cu  5.4602195013  -0.5906121954  -0.0947216930
N  3.8102444124  0.3774865027  0.6977965881
N  6.2348548444  1.2247019843  -0.7194224905
N  7.2263436529  -1.5362124677  -0.6183135835
N  4.5676372240  -2.4239743169  0.2581118615
O  6.4868633542  -0.4070641187  2.3104590825
H  6.4150068403  -1.0325771552  3.0429468187
H  7.0319476687  0.3004061474  2.6783559019
O  4.4306847652  -0.7557120031  -2.5030760977
H  4.8198793692  -1.1494528619  -3.2945658333
H  3.5708034073  -0.4436353771  -2.8132389272
H  4.0272716201  0.5642331194  1.6727659126
H  2.9464200928  -0.1541205708  0.6875450503
H  3.5820438688  1.2693937949  0.2718591042
H  7.2472798695  1.2857020929  -0.7306024892
H  5.9230541893  1.3552040053  -1.6777251593
H  5.9223673729  2.0354699884  -0.1959920104
H  7.7963538456  -1.5662326271  0.2223646142
H  7.1295045717  -2.4931725970  -0.9403962591
H  7.7775818096  -1.0682810704  -1.3297476962
H  5.2048112597  -3.1890940153  0.4517589182
H  3.8904091272  -2.4412198877  1.0131710901
H  4.0672273328  -2.6686463709  -0.5917827029