43
charge=1, multiplicity=6, basis=def2-QZVPP, mem_total=60000, AUX_BASIS_CORR=rimp2-def2-QZVPPD, SCF_ALGORITHM=GDM, xc_grid=000099000590, num_basis=1784, num_pairs=924619, num_threads=16
C  -1.2922081218  0.7181775020  -2.0329700369
C  -1.8090058512  0.8896573949  -0.7843529158
H  -0.9768987944  1.5632006646  -2.6305215973
H  -1.3868515440  -0.2302725004  -2.5480051149
H  -1.8637813796  1.9001689949  -0.3864339048
H  -4.3125221626  1.0430448173  0.2806789614
C  -4.0667489594  0.0455249917  -0.0910975056
C  -2.5491776368  -0.1619179684  -0.0219245955
H  -4.3733312814  0.0271916201  -1.1383788116
C  -4.8422187855  -0.9992640690  0.6960187921
H  -2.2533205479  -0.1544506420  1.0320405991
H  -2.3022270189  -1.1501242364  -0.4153146706
C  -6.3458537455  -0.7992753193  0.6188800910
H  -4.5212660311  -0.9749677742  1.7411046151
H  -4.5852194004  -1.9941114359  0.3232752818
H  -6.6382678361  0.1716341766  1.0180722518
H  -6.8754431766  -1.5618454037  1.1868854904
H  -6.6986639661  -0.8514511702  -0.4106530477
Cr  0.4867752082  0.3959566891  -0.6300985041
S  1.8351393653  2.4509485003  -0.8003801113
S  0.8476003869  -2.0331732274  -0.6209692592
C  3.6231533367  2.1693114810  -1.0560358524
C  1.7719424029  2.6927821129  1.0223553491
C  2.0423200675  1.4334296617  1.8165769988
N  1.0798487066  0.3549315721  1.5052716467
C  1.5717251293  -0.9857871514  1.8862789732
C  0.7917617381  -2.0954015942  1.2166211762
H  0.7746201264  3.0823145802  1.2181546597
H  2.4827994331  3.4708015992  1.2938237053
H  2.0403679475  1.6717333430  2.8835410543
H  3.0372115146  1.0617863479  1.5844811271
H  1.5440482575  -1.1269227337  2.9703765246
H  2.6163352897  -1.0456328211  1.5904257492
H  -0.2662156081  -2.0513932232  1.4678084550
H  1.1617917075  -3.0660803468  1.5404614376
C  2.5755689320  -2.5405293539  -0.9373364591
H  0.2269864347  0.5352996139  2.0259321434
H  3.2856601398  -1.8573075187  -0.4839429984
H  2.7064258166  -2.5237159921  -2.0142091482
H  2.7343650230  -3.5516810703  -0.5748219025
H  3.7566712430  2.0039837638  -2.1199728184
H  3.9739685571  1.2966685377  -0.5157429887
H  4.1828170836  3.0514055877  -0.7598028398