21
charge=0, multiplicity=3, basis=def2-QZVPP, AUX_BASIS_CORR=rimp2-def2-QZVPPD, SCF_ALGORITHM=GDM, xc_grid=000099000590, mem_total=15000, num_basis=1003, num_pairs=399695, num_threads=4
W  0.3447936724  2.6023396330  -2.2662056207
Cl  -1.1657732244  4.4018060921  -2.6427645196
Cl  2.2732427596  3.8696791574  -2.2600453052
Cl  0.1064668263  2.5828527000  0.0486881851
Cl  1.3050259400  0.4675930627  -2.4200805070
O  -1.5630717044  1.4190172941  -2.7107535054
O  0.2987092556  2.4203699902  -4.5293454334
C  -1.9253193774  1.5411084032  -4.0966339269
C  -2.6941827816  1.4966901540  -1.8227647252
C  -0.6696170086  1.4253459459  -4.9183897867
H  -2.4261314638  2.4976810439  -4.2510331388
H  -2.6076363448  0.7289472841  -4.3545832730
H  -0.9029864393  1.5380772488  -5.9755407170
H  -0.1929137830  0.4634943392  -4.7545399538
C  0.3814239105  3.5721754275  -5.3885191645
H  -3.3937425980  0.7018717613  -2.0756081217
H  -3.1665850839  2.4729648173  -1.9068454222
H  -2.3073809149  1.3585095352  -0.8214278496
H  1.1506495404  4.2080115565  -4.9684347319
H  -0.5630116101  4.1099265586  -5.4095123192
H  0.6686004295  3.2426879948  -6.3852901632