59
charge=0, multiplicity=2, basis=def2-QZVPP, mem_total=240000, AUX_BASIS_CORR=rimp2-def2-QZVPPD, SCF_ALGORITHM=GDM, xc_grid=000099000590, num_basis=2446, num_pairs=1742736, num_threads=64
Tc  -0.9037891839  2.3986201731  0.1012600497
S  -0.8737767289  4.7729615781  0.5105377456
C  -2.3138958764  5.5665658827  1.3301518122
S  -0.4473112066  0.1079199285  -0.4908930403
C  -1.7527162668  -1.1615790003  -0.2473114301
H  -2.8608705874  6.1813137498  0.6178482211
H  -1.9572183813  6.2159994498  2.1275863955
H  -2.9993549271  4.8441891230  1.7615124383
H  -1.8471564228  -1.7560997364  -1.1542968193
H  -2.7215858399  -0.7266816586  -0.0236644715
H  -1.4779007867  -1.8322958240  0.5645514211
P  -3.1042199974  2.3176763968  -0.6912946512
C  -3.5632834593  1.2761026635  -2.1413687888
C  -3.9813577979  3.8716732804  -1.1611132721
P  -1.9235601050  1.9138898779  2.1525590775
C  -1.5880875587  2.9286004618  3.6543530668
C  -1.7652650992  0.2317807361  2.8935951486
P  0.1405491597  2.8861700239  -1.9903663767
C  0.0358216315  4.5780740984  -2.7045870380
C  -0.1723761215  1.8705547542  -3.4894408482
P  1.3428000995  2.4898608819  0.9052802985
C  2.2451235520  0.9382954598  1.3091765375
C  1.8192587555  3.5347899629  2.3401155989
H  -4.1229887895  4.4992890058  -0.2891480647
H  -4.9516271784  3.6593135480  -1.6079711985
H  -3.3691836235  4.4249048161  -1.8679814627
H  -3.0136953017  0.3426473650  -2.1122336602
H  -3.2877890235  1.8006631478  -3.0523799567
H  -4.6339430509  1.0768201886  -2.1679794941
H  -0.1842927208  0.8242418463  -3.1994294987
H  0.5907311399  2.0404457596  -4.2474854972
H  -1.1417203738  2.1273710729  -3.9084777381
H  0.3482789492  5.3107259972  -1.9678662688
H  -1.0006912443  4.7956635169  -2.9503399340
H  0.6440464144  4.6636672159  -3.6038136825
H  1.3151603011  4.4923369642  2.2506292147
H  2.8975326942  3.6814863664  2.3803531722
H  1.4984878332  3.0566470897  3.2618617565
H  2.1855431045  0.2471258434  0.4749632774
H  1.7620400606  0.4571951328  2.1561195528
H  3.2856176417  1.1426790851  1.5569718195
H  -1.5054505522  3.9739419537  3.3807439375
H  -0.6398388911  2.6177950719  4.0848173328
H  -2.3668122923  2.8009795219  4.4053574252
H  -2.2565741429  -0.5005895029  2.2638688502
H  -2.2021836678  0.1949504499  3.8905468974
H  -0.7131685306  -0.0341609194  2.9473431169
C  -4.2458542401  1.6395499376  0.6289512432
C  -3.7829037491  2.0749936802  2.0047996723
H  -4.2212675319  0.5538858471  0.5470193298
H  -5.2729207270  1.9486303360  0.4305819116
H  -4.2724480466  1.5059665826  2.7962259884
H  -4.0265644614  3.1231213232  2.1712574008
C  1.9766602957  2.6690459668  -1.7835196118
C  2.4075063206  3.2153559863  -0.4370503919
H  2.5117275425  3.1454437383  -2.6060724742
H  2.1700276267  1.5974332348  -1.8429497535
H  2.2625822335  4.2954332794  -0.3964415868
H  3.4612591298  3.0175972878  -0.2362427003