27
charge=-1, multiplicity=1, basis=def2-QZVPP, AUX_BASIS_CORR=rimp2-def2-QZVPPD, SCF_ALGORITHM=GDM, xc_grid=000099000590, mem_total=15000, num_basis=1079, num_pairs=421071, num_threads=4
N  1.6697058963  -0.0856277854  0.4646729117
Si  1.1660991263  -0.9288838986  -0.8617335907
Si  1.5499433525  1.3703026635  1.2324402967
C  2.2110680315  2.8709958291  0.2442263623
C  2.5353047803  1.3981952934  2.8650629820
C  -0.2244411423  1.8897395860  1.7305301651
C  -0.7262387898  -1.1868733040  -0.9964423941
C  1.8957049596  -2.6904486732  -0.9047709702
C  1.6509832317  -0.1648073544  -2.5490064146
H  1.6030439403  -3.2432965081  -0.0101313062
H  2.9864456093  -2.6483401531  -0.9156861966
H  1.5698859305  -3.2619940222  -1.7782041020
H  1.1974321525  0.8218223430  -2.6655785234
H  1.3417292056  -0.7778735482  -3.4008796301
H  2.7327382398  -0.0291945763  -2.6066655184
H  -0.8528525509  1.9980973825  0.8438914405
H  -0.2549462519  2.8356194948  2.2796443736
H  -0.6832476965  1.1219088628  2.3564859711
H  3.5895457494  1.1885416069  2.6746640991
H  2.1690856762  0.6232272836  3.5410685671
H  2.4687943588  2.3589754645  3.3828600117
H  3.2525746056  2.7090098655  -0.0402400430
H  2.1564269316  3.8089541889  0.8049989167
H  1.6426794236  3.0003280583  -0.6792691533
H  -1.1066812752  -1.6755383573  -0.0973390654
H  -1.0141037141  -1.7955699765  -1.8588879262
H  -1.2381197808  -0.2258497654  -1.0803012636