62
charge=0, multiplicity=4, basis=def2-QZVPP, mem_total=240000, AUX_BASIS_CORR=rimp2-def2-QZVPPD, SCF_ALGORITHM=GDM, xc_grid=000099000590, num_basis=2556, num_pairs=1809456, num_threads=64
Cr  -0.0021267132  0.0080991361  0.1413288449
N  0.0712959130  -0.0832365289  2.4646523953
N  -0.0473162917  1.8490683954  0.4457229996
N  1.6360033752  -0.8774567557  0.2859779646
N  -1.5721271949  -0.9744510751  0.3813713869
C  0.3852013693  2.2509501637  1.7734821643
H  1.4797653953  2.2642981106  1.8309786935
H  0.0610619478  3.2664034044  2.0283200365
C  1.8718387089  -1.4962828018  1.5794689819
H  1.3395489188  -2.4519979671  1.6482332965
H  2.9295947697  -1.7319150630  1.7425497050
C  -2.1177241376  -0.9132083114  1.7274002602
H  -2.6727907844  0.0208521468  1.8732175193
H  -2.8342382083  -1.7188559150  1.9238251742
Si  -0.6884585961  2.9938790055  -0.6895204583
Si  2.8396619574  -0.8893256274  -0.9637068174
Si  -2.2694576991  -2.0029715608  -0.8301659188
C  -0.1696278447  1.3067540261  2.8365494015
H  0.2464508478  1.5433222100  3.8248792219
H  -1.2466656203  1.4535724623  2.8922884521
C  1.4207719064  -0.5794883704  2.7128489379
H  2.0900339025  0.2782105334  2.7446483315
H  1.4956653231  -1.0911708616  3.6816084526
C  -1.0089037723  -1.0151157997  2.7706225265
H  -1.4086839197  -0.8594763331  3.7815379555
H  -0.5990376113  -2.0226587320  2.7335258390
C  3.1807920369  -2.6410160339  -1.5637816857
H  2.2822439002  -3.0965255259  -1.9788432754
H  3.9489828766  -2.6572903201  -2.3378600475
H  3.5254166418  -3.2800387713  -0.7502025287
C  4.4537042253  -0.1572201991  -0.3213104071
H  4.3057142687  0.8684441576  0.0158559278
H  4.8619749571  -0.7246174254  0.5151784585
H  5.2163161023  -0.1434456207  -1.1008820177
C  2.2219907593  0.1661761562  -2.3848471656
H  1.2948564021  -0.2191123326  -2.8042185126
H  2.0436208600  1.1898053356  -2.0593835623
H  2.9580614758  0.1962281282  -3.1895807554
C  0.6139236989  4.2597157211  -1.1848262316
H  0.2150229996  4.9988307156  -1.8804617015
H  0.9899808477  4.8005979499  -0.3158314016
H  1.4664153535  3.7787988306  -1.6636269850
C  -2.1522586982  3.9059809749  0.0714221962
H  -2.9328830804  3.2028254275  0.3611669474
H  -1.8715617291  4.4725470489  0.9594392584
H  -2.5882925516  4.6130694488  -0.6352176260
C  -1.2863132052  2.0542250916  -2.1978710342
H  -2.0348970842  1.3139465442  -1.9196685533
H  -1.7436898602  2.7339981202  -2.9183198471
H  -0.4747705156  1.5365009384  -2.7047590430
C  -1.1883365748  -1.9393246501  -2.3607655323
H  -1.1368880555  -0.9386516384  -2.7847063623
H  -0.1733001248  -2.2614128389  -2.1341922437
H  -1.5812071411  -2.6025210518  -3.1329725241
C  -2.3297640092  -3.7819860537  -0.2099170296
H  -1.3276501478  -4.1387947200  0.0271544066
H  -2.9395555332  -3.8892081660  0.6872712857
H  -2.7495484244  -4.4490346230  -0.9637589813
C  -4.0190867973  -1.4526954645  -1.2550989175
H  -4.6588159386  -1.4460954648  -0.3721091909
H  -4.0214753465  -0.4436559507  -1.6666726856
H  -4.4834785302  -2.1118616295  -1.9893979788