25
charge=1, multiplicity=6, basis=def2-QZVPP, AUX_BASIS_CORR=rimp2-def2-QZVPPD, SCF_ALGORITHM=GDM, xc_grid=000099000590, mem_total=30000, num_basis=1082, num_pairs=438244, num_threads=8
Cr  -0.0000002152  -0.7231772063  -0.6377703707
S  2.4184943452  -0.6211935632  -0.4474000277
S  -2.4184947786  -0.6211932816  -0.4474001902
C  2.8439042460  -1.1960291520  1.2362130558
C  2.4512633531  1.2132768706  -0.2186882193
C  1.2410815879  1.7913155961  0.4888959656
N  -0.0000001636  1.5059720345  -0.2477741570
C  -1.2410820033  1.7913159284  0.4888956912
C  -2.4512637050  1.2132771885  -0.2186886118
H  2.5476362443  1.6146536263  -1.2259756867
H  3.3644063731  1.4653319997  0.3153568988
H  1.3949446805  2.8658517138  0.6274482022
H  1.1431554858  1.3563688530  1.4820525278
H  -1.3949449910  2.8658520985  0.6274476495
H  -1.1431561121  1.3563694157  1.4820523744
H  -2.5476363663  1.6146538024  -1.2259761510
H  -3.3644068222  1.4653324636  0.3153562804
C  -2.8439045109  -1.1960285024  1.2362130427
H  -0.0000000177  2.0459863453  -1.1079808682
H  -2.1449014902  -0.8293868806  1.9798358537
H  -2.8055282717  -2.2796724621  1.2113628173
H  -3.8542086338  -0.8787086576  1.4745891810
H  2.8055281109  -2.2796731091  1.2113625013
H  2.1449012866  -0.8293878126  1.9798360667
H  3.8542083683  -0.8787093089  1.4745891742