32
charge=0, multiplicity=1, basis=def2-QZVPP, AUX_BASIS_CORR=rimp2-def2-QZVPPD, SCF_ALGORITHM=GDM, xc_grid=000099000590, mem_total=30000, num_basis=1405, num_pairs=565970, num_threads=8
O  -0.1972380000  -0.8842960000  -0.6095600000
C  -0.3965240000  -1.7491660000  -1.7195180000
C  0.6321810000  -1.5328830000  -2.8234700000
H  -0.3773620000  -2.7958810000  -1.3982760000
H  -1.3959200000  -1.5460920000  -2.1048080000
H  1.5441490000  -4.0411690000  -3.3195600000
C  0.8749880000  -3.6892270000  -4.0955620000
C  0.3440680000  -2.4041030000  -4.0087290000
C  -0.5112240000  -1.9715050000  -5.0198940000
H  -0.9312280000  -0.9740680000  -4.9693670000
C  -0.8247750000  -2.7966040000  -6.0898480000
H  -1.4862130000  -2.4399950000  -6.8685110000
C  -0.2869650000  -4.0737510000  -6.1651140000
H  -0.5273740000  -4.7178120000  -7.0006000000
C  0.5647520000  -4.5180840000  -5.1636240000
H  0.9927790000  -5.5105760000  -5.2162490000
Si  1.0159010000  -1.0926040000  0.5012120000
H  2.3210350000  -0.5433360000  0.0429110000
H  1.2032050000  -2.5566420000  0.7125460000
H  1.8412330000  1.3590880000  4.7569490000
C  1.0854550000  0.9481420000  4.1004290000
C  1.4584310000  0.3278230000  2.9169370000
H  2.5103430000  0.2708630000  2.6605430000
C  0.4995560000  -0.2073440000  2.0540760000
C  -0.8475510000  -0.0963180000  2.4061470000
H  -1.6078930000  -0.4881400000  1.7425680000
C  -1.2236440000  0.5287530000  3.5856760000
H  -2.2718630000  0.6124800000  3.8417520000
C  -0.2573770000  1.0491450000  4.4360770000
H  -0.5510540000  1.5363730000  5.3568970000
H  0.6190170000  -0.4797490000  -3.1040400000
H  1.6280330000  -1.7473520000  -2.4323010000