17
charge=0, multiplicity=1, basis=def2-QZVPP, AUX_BASIS_CORR=rimp2-def2-QZVPPD, SCF_ALGORITHM=GDM, xc_grid=000099000590, mem_total=7500, num_basis=780, num_pairs=248406, num_threads=2
O  -1.1297064505  -1.3276963875  2.8088334038
C  -1.1873936494  -1.1686419221  4.0093352564
O  -0.7114445590  1.4967445050  2.8116177958
C  -0.4867480394  1.2148145906  3.9488611495
O  0.0482033334  2.0978214003  4.8498136946
N  -0.7388436052  0.0082574635  4.6315298076
C  0.3483036759  1.4243213440  6.0785968383
C  -0.5293067390  0.1813499569  6.0624683277
H  0.1281917898  2.0959265085  6.9023281827
H  1.4087435554  1.1711558236  6.0896637610
H  -1.4736005155  0.3484967669  6.5845594899
H  -0.0270521469  -0.6740556071  6.5044169958
C  -1.7365711223  -2.1910257542  4.9369456837
C  -2.0021058134  -3.4194941241  4.5075669376
H  -1.9441477310  -1.9193470587  5.9636287909
H  -1.8046060047  -3.6965358613  3.4811357087
H  -2.4241659784  -4.1685116442  5.1624481763