72
charge=0, multiplicity=2, basis=def2-QZVPP, mem_total=700000, AUX_BASIS_CORR=rimp2-def2-QZVPPD, SCF_ALGORITHM=GDM, xc_grid=000099000590, num_basis=3147, num_pairs=2489250, num_threads=128
Si  -0.0238826736  0.3482122936  0.1955617121
C  1.8403097840  0.0424682123  0.0416794014
C  2.5937909676  -0.8626390652  0.7894612974
H  2.1182419312  -1.4463462292  1.5684349433
C  3.9423197795  -1.0598901739  0.5314026231
H  4.5104160949  -1.7719836509  1.1167113555
C  4.5621977990  -0.3438136780  -0.4840644306
H  5.6134315973  -0.4958109813  -0.6932382747
C  3.8305688123  0.5619805202  -1.2382799239
H  4.3313455272  1.1128113566  -2.0237302912
C  2.4753271531  0.7553430349  -0.9833422104
P  1.4239657524  1.9969956736  -1.8718614963
C  -0.5790407283  0.9170156841  1.9110448872
C  -0.0440681975  0.5701539343  3.1503841997
H  0.8622218400  -0.0214094818  3.2003922943
C  -0.6474395151  0.9839894988  4.3301710303
H  -0.2117365034  0.7203284284  5.2858247643
C  -1.8141892412  1.7352465314  4.2833996731
H  -2.2934535841  2.0532244150  5.2005453361
C  -2.3617145100  2.0875422935  3.0573838620
H  -3.2694214794  2.6780790146  3.0386560671
C  -1.7384780455  1.7024016419  1.8742614246
P  -2.3449679985  2.2075889422  0.1908212004
C  -0.8490971126  -1.3550828765  -0.0121828376
C  -0.8557558023  -2.3821739440  0.9307540511
H  -0.3786215254  -2.2324582046  1.8922920748
C  -1.4926619686  -3.5871302163  0.6727767746
H  -1.4997893707  -4.3705297526  1.4203741250
C  -2.1255758360  -3.7870318249  -0.5478026277
H  -2.6232756694  -4.7259351062  -0.7550154432
C  -2.1289651727  -2.7768961357  -1.4984521196
H  -2.6273480699  -2.9484808612  -2.4441695763
C  -1.5054485294  -1.5605565346  -1.2296447102
P  -1.4488298355  -0.1399071476  -2.4139761371
Ru  -0.8146269153  1.7973117275  -1.4634521267
C  -4.0324749063  1.4558512581  0.1766031091
C  -2.7535404271  3.9854166986  0.5023307269
C  -3.0887916077  -0.2773485045  -3.2572242699
C  -0.3551777343  -0.8498073750  -3.7251110794
C  2.0985255833  3.5533812729  -1.1247650906
C  2.2154787277  2.0940855792  -3.5409007968
H  -3.4494384054  4.1232605730  1.3282586117
H  -3.1871340884  4.4229104166  -0.3917148037
H  -1.8290791007  4.5107374216  0.7261192709
H  -4.6161712313  1.7165416697  1.0582608220
H  -4.5630896115  1.7843701201  -0.7140930103
H  -3.9193447679  0.3755626634  0.1347436875
H  0.6315569024  -0.9981394930  -3.2942533868
H  -0.2715266261  -0.1455177359  -4.5490815862
H  -0.7236298399  -1.8037794797  -4.1015050006
H  -3.8753775857  -0.0472292850  -2.5449642964
H  -3.2687035128  -1.2652372230  -3.6775156853
H  -3.1353021021  0.4467389550  -4.0656909741
H  3.1811930560  3.6201968583  -1.2347834185
H  1.8455614154  3.5554007054  -0.0685035925
H  1.6329629066  4.4180728159  -1.5899889432
H  3.2900164766  2.2608906926  -3.4972060355
H  1.7693227313  2.9264362079  -4.0793561295
H  2.0189182617  1.1813032785  -4.0956646268
P  -1.6379693296  3.2147690677  -3.1072676080
C  -1.0691454920  4.9755172410  -3.0756828701
H  0.0043509969  5.0056695436  -3.2456249988
H  -1.2616103715  5.3966005514  -2.0922389827
H  -1.5619858691  5.5871683007  -3.8318452875
C  -3.4634436598  3.4910359020  -3.2527698849
H  -3.9647141609  2.5352739653  -3.3727327452
H  -3.7144236102  4.1319561373  -4.0977486931
H  -3.8417886633  3.9510100103  -2.3448076665
C  -1.2881910606  2.8217405517  -4.8820332309
H  -0.2190460472  2.7056809017  -5.0266847427
H  -1.6578508718  3.5968744644  -5.5528278280
H  -1.7603551236  1.8795979267  -5.1474698566