39
charge=0, multiplicity=4, basis=def2-QZVPP, AUX_BASIS_CORR=rimp2-def2-QZVPPD, SCF_ALGORITHM=GDM, xc_grid=000099000590, mem_total=60000, num_basis=1637, num_pairs=918268, num_threads=16
C  -2.1270371971  1.3106895166  -1.0153970883
C  -0.7602979676  1.6803023220  -1.1084849018
C  0.0165270255  0.5997937933  -0.6407901418
H  -0.3814322266  2.6222846407  -1.4699856502
C  -0.8588771425  -0.4375988901  -0.2507270715
C  -2.1867466851  0.0055412243  -0.4829005768
H  -3.0851334063  -0.5583072673  -0.2917020056
H  -2.9694743786  1.9190452060  -1.3007991633
H  1.0896116054  0.5849793731  -0.5531398680
H  -0.5682172966  -1.3900537583  0.1603674103
V  -1.2578774690  1.3577793988  1.1099858812
P  -1.8597465315  3.5650226085  1.8671306890
C  0.4862596521  1.4140439629  2.3724228265
H  0.9289142709  0.4126954563  2.4169749135
H  0.3815110948  1.7489756161  3.4110279615
H  1.2411376124  2.0671815753  1.9202946509
P  -2.4776864594  0.6754062686  3.0608668446
C  -2.9759833860  3.3979155017  3.3532230966
C  -2.6084928297  2.1659923253  4.1654119253
H  -3.9937274167  3.3081149929  2.9719768529
H  -2.9432765766  4.3024338202  3.9629103864
H  -3.3259094690  1.9892469607  4.9686693983
H  -1.6296462120  2.2915423250  4.6262756752
C  -4.2377491318  0.1297576219  2.9374698554
H  -4.2824700944  -0.8036285698  2.3809034419
H  -4.8089226722  0.8708858466  2.3835945175
H  -4.6963845254  -0.0194113789  3.9145143919
C  -1.7865472273  -0.5899303854  4.2029335257
H  -0.7531476081  -0.3352482029  4.4184925336
H  -1.7982299645  -1.5594737442  3.7104694205
H  -2.3485355362  -0.6586230249  5.1338004852
C  -0.5366556164  4.6862486348  2.4912696407
H  0.0401609421  4.1670352135  3.2505830779
H  -0.9412475637  5.6095472421  2.9043149323
H  0.1395631375  4.9259987902  1.6741512847
C  -2.8304719325  4.7191106302  0.8071038071
H  -3.1248196882  5.6220442302  1.3411291139
H  -3.7219428880  4.2112530590  0.4471382074
H  -2.2329582420  5.0008370649  -0.0568002807