32
charge=0, multiplicity=2, basis=def2-QZVPP, AUX_BASIS_CORR=rimp2-def2-QZVPPD, SCF_ALGORITHM=GDM, xc_grid=000099000590, mem_total=60000, num_basis=1415, num_pairs=757113, num_threads=16
C  -1.4675970158  0.4427206644  -0.0199940335
C  -0.4399996083  1.3894532357  -0.2386904242
C  0.7994224795  0.6990665618  -0.3205401128
C  -0.6295276978  2.8567752797  -0.2950726714
C  0.5346398907  -0.6983698020  -0.1267001209
C  -0.8831577072  -0.8517533861  0.0397198051
C  -1.6082963877  -2.1179866101  0.3074084554
C  -2.8971607747  0.7695702988  0.1856772647
C  2.1313659146  1.3278762898  -0.4964882346
C  1.5534957019  -1.7698356131  0.0178348609
W  -0.3516759441  -0.2096983596  -2.1476294935
Cl  -0.3237596803  1.8881084851  -3.3041632388
Cl  -2.6533559858  -0.3029673857  -2.8008406086
O  -0.4693876541  -2.1122718266  -2.5890159437
O  1.4033532770  -0.3507089880  -3.0005410066
H  -1.5426228667  3.1234026989  -0.8182892798
H  0.1936990135  3.3501461535  -0.7987057637
H  -0.6945194257  3.2533070462  0.7206429914
H  2.0805952878  2.1687990953  -1.1820528575
H  2.8504642444  0.6251461970  -0.9033269850
H  2.5106255966  1.6894155836  0.4609584437
H  2.4421912197  -1.5590269161  -0.5706683042
H  1.1633030735  -2.7367492258  -0.2874505745
H  1.8640274061  -1.8566499552  1.0603284626
H  -1.0579328971  -2.9758284321  -0.0636948558
H  -2.5790500863  -2.1242826159  -0.1797982879
H  -1.7628140353  -2.2481486071  1.3799993477
H  -3.2245209677  1.5676932670  -0.4735474815
H  -3.0499641763  1.0987723411  1.2158824218
H  -3.5365207071  -0.0870427313  0.0061509383
H  0.3651894058  -2.5520826268  -2.8000399102
H  1.7550711072  -1.2435101163  -3.1168528030