14
charge=0, multiplicity=1, basis=def2-QZVPP, AUX_BASIS_CORR=rimp2-def2-QZVPPD, SCF_ALGORITHM=GDM, xc_grid=000099000590, mem_total=3750, num_basis=581, num_pairs=152404, num_threads=1
Si  0.4572628937  -0.4248752800  -3.1525576162
Cl  2.5593370254  -0.4250876837  -3.1522001398
C  -0.0951555285  0.8567576893  -4.3929963430
C  -0.0959435154  0.0081252239  -1.4225022083
C  -0.0957888839  -2.1396944805  -3.6426927811
H  0.2718007520  1.8469585470  -4.1288259117
H  -1.1837526857  0.9052455825  -4.4383684958
H  0.2698552456  0.6233032022  -5.3916147502
H  0.2688810890  -2.4045967862  -4.6335403868
H  -1.1844234356  -2.2032877865  -3.6593391366
H  0.2711117926  -2.8884366184  -2.9429164252
H  0.2679555281  0.9899600761  -1.1249522878
H  0.2714867834  -0.7156310910  -0.6971702226
H  -1.1845870606  0.0218894052  -1.3582332950