74
charge=-2, multiplicity=1, basis=def2-QZVPP, mem_total=240000, AUX_BASIS_CORR=rimp2-def2-QZVPPD, SCF_ALGORITHM=GDM, xc_grid=000099000590, num_basis=3162, num_pairs=2207390, num_threads=64
N  5.1775559770  1.4764286122  -4.1271205097
P  4.9105617714  0.1051547234  -0.5340639610
P  0.7653418941  1.4918829881  -5.5361395142
C  2.3149591184  1.8637545105  -4.6205193394
C  -0.5536573253  1.8383690331  -4.2810476118
C  6.0496599010  -0.4234536859  -1.9015793283
C  3.3216109653  0.3065417899  -1.4212874727
Si  1.8928986354  1.3152383286  -0.6439501903
H  2.9680427122  -0.6472490996  -1.8194937345
H  3.6238615596  0.8878831100  -2.2952764993
C  2.6124619661  3.0711713762  -0.5277594905
C  1.6699294693  0.7841532923  1.1767389792
Si  -0.5291441513  0.7304568438  -2.6945139284
H  -1.5196301260  1.6935019219  -4.7726612312
H  -0.5004261820  2.8812316979  -3.9592951259
C  -0.2820710034  -1.0474516128  -3.3370137771
C  -2.3605876901  0.7911780282  -2.1404192128
Si  3.9559389043  1.0386592186  -5.1560784154
H  2.1125996261  1.4748431133  -3.6219184979
H  2.4440777437  2.9376627178  -4.4687893207
C  4.3000772988  1.5137122827  -6.9729410396
C  3.5607081388  -0.8236184130  -5.2402264196
Si  6.4405336902  0.9271064290  -3.2249500906
H  5.6306458684  -1.2996318562  -2.4041884258
H  6.9983939396  -0.7301794502  -1.4513745785
C  0.5710623767  2.9378120746  -6.6637755777
C  -0.6639279255  3.1490780543  -7.2918595390
H  -1.4922795849  2.4900001832  -7.0592125557
C  -0.8506483014  4.1788483071  -8.1982406170
H  -1.8232659303  4.3203365179  -8.6577764665
C  0.2016126503  5.0312069412  -8.5202188610
H  0.0606412449  5.8352642592  -9.2336374097
C  1.4350384812  4.8302283644  -7.9165836956
H  2.2672963613  5.4841084065  -8.1525034849
C  1.6157460202  3.8037301923  -6.9988868017
H  2.5823767861  3.6720875143  -6.5379459306
C  4.6955557570  -1.4970709286  0.3577372903
C  5.8060730301  -2.0748460162  0.9856048629
H  6.7692872164  -1.5829256557  0.9065097034
C  5.7005221031  -3.2531138931  1.7054615198
H  6.5819858079  -3.6797908721  2.1725079869
C  4.4687111985  -3.8883047566  1.8329287943
H  4.3799768047  -4.8070827689  2.4016766146
C  3.3551336390  -3.3229594818  1.2277162792
H  2.3872528996  -3.8035633407  1.3160566063
C  3.4674068774  -2.1478604113  0.4960050642
H  2.5892898294  -1.7297882415  0.0277889357
H  3.3099275479  -1.2067126623  -4.2510662342
H  4.4333541412  -1.3781436970  -5.5939824329
H  2.7219088626  -1.0411320369  -5.9043426920
H  4.6056370175  2.5579206175  -7.0556672706
H  3.4383425589  1.3560536764  -7.6258511927
H  5.1271123500  0.9079384843  -7.3512612043
C  7.8497227891  0.0957242052  -4.2265825554
C  7.2912439946  2.3205843147  -2.2484630449
H  7.4777174685  -0.7973143161  -4.7333200308
H  8.7040235611  -0.1988700519  -3.6090361498
H  8.2086672033  0.7806034953  -4.9981201601
H  6.5772930871  2.7925357943  -1.5734321958
H  7.6581325062  3.0888020386  -2.9324365265
H  8.1336617458  1.9634233784  -1.6496431661
H  1.1894625469  -0.1918996262  1.2526113108
H  1.0213514945  1.5027466685  1.6838235110
H  2.6166961998  0.7393552204  1.7202496220
H  2.8563772989  3.4408666250  -1.5240585098
H  3.5258398039  3.1013787276  0.0705559446
H  1.8853547174  3.7555937410  -0.0848460342
H  0.7250959808  -1.1824539828  -3.7303428509
H  -0.9817949335  -1.3094383496  -4.1354458560
H  -0.4135143662  -1.7605905497  -2.5197518889
H  -2.6400551344  1.8112870980  -1.8690846662
H  -2.4990460701  0.1699875587  -1.2529883734
H  -3.0526320981  0.4423751950  -2.9127541962
N  0.4950396887  1.2215880858  -1.5140271398