4
charge=-1, multiplicity=1, basis=def2-QZVPP, AUX_BASIS_CORR=rimp2-def2-QZVPPD, SCF_ALGORITHM=GDM, xc_grid=000099000590, mem_total=3750, num_basis=147, num_pairs=11148, num_threads=1
C  0.7337936664  1.3837529009  -4.1163176543
H  1.8421971224  1.4034404119  -4.1946942062
H  0.4024950632  0.6727963606  -4.9036272383
H  0.4024541481  2.3827803267  -4.4729909012