49
charge=0, multiplicity=2, basis=def2-QZVPP, mem_total=120000, AUX_BASIS_CORR=rimp2-def2-QZVPPD, SCF_ALGORITHM=GDM, xc_grid=000099000590, num_basis=2222, num_pairs=1479581, num_threads=32
C  -1.1190078939  -1.1406054927  -4.8688350103
C  -1.2980642298  -1.5726991542  -3.5361414621
C  -0.4910128155  -2.7202585870  -3.3268134013
H  -1.9276952730  -1.1007259350  -2.8017391909
C  0.1959613313  -2.9794732456  -4.5356681526
C  -0.1887179572  -2.0102705351  -5.4795145124
H  0.1691766143  -1.9262071871  -6.4915336014
H  -1.5765869946  -0.2801363781  -5.3259836375
H  -0.4031420590  -3.2869772984  -2.4159445224
H  0.8548840484  -3.8105371700  -4.7135960484
C  -4.6398159973  -2.9393349348  -5.6230977811
C  -4.4261506942  -2.1221573866  -4.4950800116
C  -4.2386027720  -2.9626779376  -3.3732248331
H  -4.3976190473  -1.0450579319  -4.4887801156
C  -4.3346808787  -4.2989291877  -3.8028763982
C  -4.5731899933  -4.2903272619  -5.1968258097
H  -4.6787246934  -5.1568223217  -5.8240002307
H  -4.8478718187  -2.6030352247  -6.6241616377
H  -4.0436488750  -2.6372970702  -2.3648253788
H  -4.2026612410  -5.1745787344  -3.1923144396
Zr  -2.2803115927  -3.3760449285  -4.9058659292
H  -0.2350572759  -5.5316298517  -7.1855631489
H  0.4726595252  -4.0435380938  -7.8123250754
C  -0.3574355911  -4.7366430702  -7.9143824786
H  -0.3612161992  -5.1551669388  -8.9166699759
H  -2.4282920892  -6.7069660976  -7.2195703043
C  -3.1925136632  -6.3215433237  -7.8791244734
P  -1.9264248799  -3.8603414677  -7.5203111779
H  -4.1797067349  -8.2075053212  -8.0598298311
H  -2.7956296458  -1.1248530682  -7.2532273960
C  -4.1956308337  -7.1614469257  -8.3353190251
C  -3.2001900448  -4.9688472471  -8.2240304442
C  -2.4360696527  -1.2190229324  -8.2693563781
C  -1.9283686337  -2.4443943446  -8.6903082708
C  -2.4752876435  -0.1348768965  -9.1345574885
C  -5.2202292016  -6.6656542953  -9.1316536777
H  -2.8712123348  0.8126733520  -8.7937920212
C  -4.2325239260  -4.4748546129  -9.0184882056
C  -1.4657316963  -2.5697648223  -9.9998588738
H  -6.0043129208  -7.3237167438  -9.4820163107
C  -5.2373028562  -5.3203906072  -9.4674581067
H  -1.0864928052  -3.5180632878  -10.3545826888
C  -2.0045200225  -0.2657837535  -10.4325800108
H  -4.2503234677  -3.4303141594  -9.2962927268
C  -1.5006929507  -1.4864034117  -10.8635609911
H  -2.0313734971  0.5786311485  -11.1085563718
H  -6.0327803802  -4.9243458375  -10.0848293433
H  -1.1361467320  -1.5950482945  -11.8764028857
Cl  -1.4989610137  -5.8001351923  -4.7300302130