23
charge=0, multiplicity=2, basis=def2-QZVPP, AUX_BASIS_CORR=rimp2-def2-QZVPPD, SCF_ALGORITHM=GDM, xc_grid=000099000590, mem_total=30000, num_basis=1141, num_pairs=539368, num_threads=8
C  -0.3345909270  -0.9910254521  -0.8100579470
C  0.6961296255  -0.0273691432  -0.9348099856
C  0.9345192772  0.5270509662  0.3352146754
H  1.1751683474  0.2681007711  -1.8487941640
C  0.0293917648  -0.0467363606  1.2397848499
C  -0.7386135285  -1.0092642445  0.5321307065
H  -1.5051811431  -1.6359531675  0.9508518687
H  -0.7587777171  -1.5639757218  -1.6138666896
H  1.6394005454  1.3040762727  0.5583537653
H  -0.0544400247  0.1963879331  2.2843996478
C  -3.5416202741  1.3309507492  -0.7401037629
C  -3.0165323573  2.5193777498  -0.2013701133
C  -2.5578187424  2.2452734671  1.1104922494
H  -2.9313953107  3.4579571651  -0.7151738184
C  -2.7831844949  0.8852600735  1.3634657377
C  -3.3688671350  0.3093807852  0.2046038820
H  -3.6443891621  -0.7221199655  0.0724741348
H  -3.9403725306  1.2128832125  -1.7287692191
H  -2.0787405612  2.9474357110  1.7675614592
H  -2.5419707746  0.3640474096  2.2722833129
V  -1.2498314562  1.0502103213  -0.3364835874
Br  -0.0193071338  3.2914901391  -0.4348236933
Br  -1.4235262870  1.1145213286  -2.8877033089