60
charge=0, multiplicity=2, basis=def2-QZVPP, mem_total=240000, AUX_BASIS_CORR=rimp2-def2-QZVPPD, SCF_ALGORITHM=GDM, xc_grid=000099000590, num_basis=2659, num_pairs=1885657, num_threads=64
C  1.7115606591  -1.9160160523  0.2759391814
C  1.0161878313  -1.7543748251  1.6588609670
C  0.7255159572  -1.2850828479  -0.7399505899
C  -0.6343614563  -1.3447387389  -0.0596410575
H  0.7552058196  -1.8118800438  -1.6865423998
H  1.0103917734  -0.2507322951  -0.9243318157
C  -0.2966916768  -1.0091844778  1.4114693093
H  1.6624145065  -1.2179480375  2.3498680026
H  0.8136437523  -2.7328056759  2.0896082988
C  -0.1313853063  0.4814834307  1.6589276305
H  -1.0830226219  -1.3715299287  2.0738681591
H  -0.9422398077  -2.3982569392  -0.0565306130
C  -1.7311489151  -0.5431293452  -0.6576726966
C  3.0019703633  -1.1282305057  0.1711176123
C  1.8948961989  -3.4069389836  -0.0383725609
O  1.2352594830  -3.9911735477  -0.8604138814
O  3.3379609720  -0.2189458315  0.8956585387
O  3.7057311596  -1.5246062143  -0.9080926060
O  2.7684546622  -4.1356355370  0.6991701709
C  3.6959271237  -3.5571804800  1.6225113499
H  3.2312662638  -2.8379970817  2.2896794638
H  4.5248511947  -3.0909199163  1.0941162854
H  4.0746825851  -4.3879195691  2.2087319605
C  4.9042709086  -0.7798556402  -1.1857761233
H  4.6669539693  0.2627383883  -1.3805824254
H  5.3367104251  -1.2427408993  -2.0648613586
H  5.5929689675  -0.8355846567  -0.3463969154
O  -1.3123695079  1.1780095065  1.4285247062
H  0.6840702816  0.8812956961  1.0450220953
H  0.1812279804  0.6156161754  2.7021308235
C  -3.1226776903  -0.8947160611  -0.2934204813
C  -1.4810286394  0.4216762145  -1.7518268170
H  -1.0696760639  -0.0627430777  -2.6465060849
H  -0.7642854508  1.1955796934  -1.4665034878
H  -2.3929918609  0.9362565379  -2.0383949856
H  -3.7595970249  -0.0126731723  -0.2733064170
H  -3.1797747991  -1.3784770943  0.6815189779
H  -3.5653223701  -1.5933445555  -1.0182009090
Ti  -2.1007308583  2.8009622832  1.7813034173
Cl  -3.6164027139  2.8300224136  -0.0422626533
C  -4.2309401607  3.0766053938  2.9494860080
C  -3.9453205856  1.6890219974  2.9116794417
C  -2.8091257976  1.4609069018  3.6961272028
H  -4.4772218023  0.9548849456  2.3335451133
C  -2.3497186550  2.7001360817  4.1735050340
C  -3.2601758311  3.6981156572  3.7349812972
H  -3.1945351263  4.7518127422  3.9405272127
H  -5.0259379710  3.5662971084  2.4169446304
H  -2.3127592652  0.5155680021  3.8263719524
H  -1.4813921855  2.8565400024  4.7907834546
C  -1.1308196743  4.4905201035  0.2979112728
C  -1.5313240368  5.1178839807  1.4962983986
C  -0.7169436376  4.6209951089  2.5322308587
H  -2.3259231722  5.8374073128  1.5948577466
C  0.1511179322  3.6589776157  1.9842198193
C  -0.0959454824  3.5977172331  0.5965358751
H  0.3780187335  2.9298310554  -0.1012249496
H  -1.5869254776  4.6281140941  -0.6642512282
H  -0.7544489268  4.9161992117  3.5650246309
H  0.8742450480  3.0748371431  2.5276461576