13
charge=0, multiplicity=2, basis=def2-QZVPP, AUX_BASIS_CORR=rimp2-def2-QZVPPD, SCF_ALGORITHM=GDM, xc_grid=000099000590, mem_total=7500, num_basis=668, num_pairs=203874, num_threads=2
C  -3.7316466624  1.4198747101  -0.7084782011
C  -3.3405106423  2.6409816056  -0.1132951210
C  -2.6528782407  2.3330238121  1.0841902950
H  -3.5365464839  3.6277072895  -0.4984249759
C  -2.5889923099  0.9271436935  1.2053886943
C  -3.2665376412  0.3676573891  0.0997512141
H  -3.3517304667  -0.6825707517  -0.1234896498
H  -4.2303823567  1.3113568175  -1.6565206066
H  -2.1955858469  3.0443543231  1.7494214386
H  -2.0989031346  0.3796059782  1.9931266402
Ti  -1.3801618246  1.5518900949  -0.6867720449
Cl  0.4212039893  2.6669532371  -0.0073369196
Cl  -1.1468483795  0.4180918011  -2.5915707634