55
charge=0, multiplicity=2, basis=def2-QZVPP, mem_total=120000, AUX_BASIS_CORR=rimp2-def2-QZVPPD, SCF_ALGORITHM=GDM, xc_grid=000099000590, num_basis=2251, num_pairs=1413046, num_threads=32
Sc  -0.8667757837  -1.2372284864  1.4156211627
N  -0.2446163995  0.6848054546  1.5962172967
Si  1.3757516581  0.6001595555  1.0565883240
Si  -1.1514933177  1.9603175516  2.3244517601
N  -2.7006776989  -1.9677279661  0.9564974228
Si  -3.7660669452  -1.4085811087  -0.2829259178
Si  -2.8013607725  -3.4032931498  1.8874097019
C  -2.7734874298  1.2450880703  2.9625831231
C  -1.4912602994  3.3490549249  1.1002423804
C  -0.2563199580  2.7033063007  3.8061578254
C  1.6622174763  1.3511031535  -0.6385497903
C  1.7319769631  -1.2891927709  0.9120276103
C  2.6575274758  1.2702947728  2.2542294455
C  -3.2679040327  0.3313185325  -0.7993547796
C  -5.5502913665  -1.3856649914  0.3194162403
C  -3.6649632601  -2.5002619899  -1.8143522606
C  -1.0037656022  -3.7181720071  2.4944828701
C  -3.3037361249  -4.9347789664  0.9224512293
C  -3.8870586906  -3.2479152858  3.4091761750
H  -3.5153889311  1.0728219670  -0.0428357370
H  -3.7787347860  0.6202359643  -1.7184319419
H  -2.1948692231  0.4022797174  -0.9854251796
H  -5.6514318806  -0.7778375804  1.2182116323
H  -5.9007654808  -2.3896334923  0.5622252067
H  -6.2261882581  -0.9801854307  -0.4341363931
H  -2.6397705310  -2.5452756455  -2.1829751821
H  -4.2894357525  -2.1106994836  -2.6195409453
H  -3.9869462265  -3.5207364705  -1.6135467324
H  -2.6662495668  -5.0840004472  0.0524874133
H  -4.3308068296  -4.8551724973  0.5671715941
H  -3.2437549084  -5.8298845460  1.5422532762
H  -0.2952311619  -3.9251070845  1.6855500246
H  -0.9976411694  -4.6079116688  3.1232989454
H  -0.5960779933  -2.9310312644  3.1508537720
H  -3.5558557865  -2.4178055017  4.0323037286
H  -3.8807546671  -4.1535355518  4.0169293348
H  -4.9196469264  -3.0467511297  3.1251946385
H  1.1132486340  -1.8223849029  0.1697080802
H  1.7087622582  -1.8242179330  1.8687734339
H  2.7473221370  -1.4170969208  0.5389093982
H  2.6056441493  2.3562290928  2.3203906366
H  3.6678896558  1.0134398664  1.9338158673
H  2.5100319757  0.8744230881  3.2577587896
H  0.0349684450  1.9290031176  4.5155743970
H  -0.9008221875  3.4085762194  4.3326676347
H  0.6451145308  3.2419302869  3.5174830150
H  -1.9781987102  2.9782695567  0.2000690279
H  -0.5619210351  3.8302906780  0.7928209809
H  -2.1286690646  4.1211489481  1.5327428237
H  -3.3486718204  0.7338748132  2.1938269789
H  -3.4070873915  2.0276336396  3.3822766856
H  -2.5844800145  0.5183265162  3.7543586420
H  0.9970493415  0.9023507075  -1.3755740380
H  2.6889047714  1.2196515860  -0.9825439707
H  1.4542785128  2.4209701920  -0.6240456568