13
charge=0, multiplicity=2, basis=def2-QZVPP, AUX_BASIS_CORR=rimp2-def2-QZVPPD, SCF_ALGORITHM=GDM, xc_grid=000099000590, mem_total=7500, num_basis=663, num_pairs=201314, num_threads=2
C  -2.0425699152  3.4874174477  -0.6238703531
C  -0.9641002517  3.1628548890  0.2448035589
C  0.2409200716  3.1445212825  -0.5399255292
H  -1.0345478701  2.9279480226  1.2921152234
C  -0.0970459741  3.5138655603  -1.8667159177
C  -1.5046594308  3.6659762734  -1.9437199433
H  -2.0709712912  3.8838482183  -2.8325798561
H  -3.0838215786  3.5381954442  -0.3588219626
H  1.2257839334  2.9026428182  -0.1799237168
H  0.5762361067  3.5096211233  -2.7060362073
Ru  -1.1357360859  1.6553264587  -1.2571696587
Cl  -2.4630627045  0.1548884785  -0.2011068728
Cl  -0.1650940094  0.3672989834  -2.8680757648