14
charge=0, multiplicity=1, basis=def2-QZVPP, AUX_BASIS_CORR=rimp2-def2-QZVPPD, SCF_ALGORITHM=GDM, xc_grid=000099000590, mem_total=3750, num_basis=636, num_pairs=179169, num_threads=1
O  -0.9972013731  -0.5146690394  -0.3400399532
C  -0.7394356818  -0.7624599181  -1.5008818035
C  0.1198546257  -1.8614091068  -1.9636967361
C  0.7255639427  -2.7300272014  -1.0535420427
H  0.5498193630  -2.5793844382  0.0026280617
C  1.5302716312  -3.7559458522  -1.5103080782
H  2.0004029221  -4.4298654195  -0.8068258367
C  1.7374049397  -3.9242840163  -2.8765964264
H  2.3683140177  -4.7289130219  -3.2306718441
C  1.1382196888  -3.0645752203  -3.7870743790
H  1.3012429631  -3.1983887206  -4.8478268204
C  0.3313035538  -2.0353244241  -3.3305463450
H  -0.1406646379  -1.3588805628  -4.0332271845
H  -1.1630359550  -0.1393030585  -2.3172706118