16
charge=0, multiplicity=1, basis=def2-QZVPP, AUX_BASIS_CORR=rimp2-def2-QZVPPD, SCF_ALGORITHM=GDM, xc_grid=000099000590, mem_total=7500, num_basis=642, num_pairs=192885, num_threads=2
O  1.7202819269  0.0183619663  -1.4140027950
C  2.7078900150  0.6472295587  -0.5701272469
C  2.9570540960  -0.6441213870  0.2011987974
H  2.2823431476  1.4703951822  0.0082242890
H  3.5545403134  1.0245051178  -1.1481559031
C  1.8971755802  -1.2689395851  -0.7273455070
H  2.6826905144  -0.6200016009  1.2528388338
H  3.9547972128  -1.0636777795  0.0996414131
C  0.6141616479  -1.6903306575  -0.0525245157
H  0.2511130223  -0.9067579098  0.6097826811
H  0.7664844198  -2.5958580512  0.5356784850
H  -0.1582492628  -1.8925009247  -0.7937353315
C  2.4137352160  -2.3137608678  -1.6870138300
H  3.3259332708  -1.9734231898  -2.1734304917
H  1.6741309801  -2.5199327209  -2.4598329130
H  2.6291178994  -3.2462971507  -1.1643959656