45
charge=0, multiplicity=2, basis=def2-QZVPP, mem_total=120000, AUX_BASIS_CORR=rimp2-def2-QZVPPD, SCF_ALGORITHM=GDM, xc_grid=000099000590, num_basis=2218, num_pairs=1297704, num_threads=32
N  -2.5852381207  1.0222494385  0.2906706487
N  1.2879385292  2.7826148065  -0.6131520929
C  -2.7733102405  0.2511329205  1.3716547033
C  -4.0294931018  -0.2676074761  1.6712494893
C  -5.0915272815  0.0114427813  0.8312150310
H  -4.1720611563  -0.8574081895  2.5641779097
C  -4.8826519034  0.8026779027  -0.2833396559
H  -6.0749521339  -0.3844019829  1.0438722473
C  -3.6083567532  1.3047050784  -0.5296816301
H  -5.6876974574  1.0126414572  -0.9714559872
C  2.3642773335  2.0022188437  -0.6689570690
C  3.5933708686  2.5529791360  -0.9955848273
C  1.3183956524  4.0892903214  -0.8642090197
C  2.5185884010  4.6934183668  -1.2031499943
C  3.6652046907  3.9129151539  -1.2654587008
H  2.5207852150  5.7545227922  -1.4067559040
H  4.6136150649  4.3640107828  -1.5250059409
H  4.4552600343  1.9024166207  -1.0312035597
C  -1.6018918412  -0.0094389518  2.2341825887
N  -0.7036053339  0.9773489916  2.3320329211
C  -1.4348279887  -1.2315590705  2.8791438667
C  -3.3257185435  2.1552213262  -1.7052002265
N  -2.1291571571  1.9945767793  -2.2824336072
C  -4.2475321183  3.0964793390  -2.1526376434
C  2.1497982813  0.5268744655  -0.3592776296
O  3.1365820262  -0.2123287853  -0.3227295734
O  0.9399366283  0.1562272314  -0.1509930884
C  -0.0068042931  4.8322564229  -0.7631959520
O  -0.0322794331  6.0276039481  -1.0660380035
O  -1.0171547390  4.1486519464  -0.3666086592
Ag  -0.5634248499  1.9040729240  -0.1272492281
C  -0.2980057087  -1.4318624532  3.6434568529
H  -2.1559114429  -2.0262659030  2.7516508772
C  0.6320801579  -0.4111041435  3.7442523186
H  -0.1325374920  -2.3800153669  4.1361811966
C  0.3853973041  0.7728683002  3.0664845568
H  1.5388923368  -0.5316085035  4.3194486080
H  1.0924866079  1.5921763433  3.1043406944
C  -3.9097073653  3.9009093961  -3.2274394572
H  -5.1904245060  3.2314734854  -1.6420129249
C  -2.6722206296  3.7363405572  -3.8260672728
H  -4.5957254083  4.6597481414  -3.5775200775
C  -1.8181548515  2.7703417227  -3.3164352541
H  -2.3642399676  4.3531405085  -4.6582453560
H  -0.8359073136  2.6151925941  -3.7459261746