29
charge=0, multiplicity=1, basis=def2-QZVPP, AUX_BASIS_CORR=rimp2-def2-QZVPPD, SCF_ALGORITHM=GDM, xc_grid=000099000590, mem_total=30000, num_basis=1356, num_pairs=566997, num_threads=8
N  -3.0576484551  1.6123934891  0.3463293938
C  -3.2515440014  0.8379778165  1.4168478214
C  -4.2961934114  -0.0846207633  1.4968240759
C  -5.1615198762  -0.2039512091  0.4244098601
H  -4.4432895554  -0.6709174429  2.3930227034
C  -4.9565486650  0.5861015493  -0.6923125600
H  -5.9959639709  -0.8913156776  0.4656180440
C  -3.8882190269  1.4846459555  -0.6915100639
H  -5.6285507348  0.5328752716  -1.5373807033
C  -2.2993540338  0.9903611051  2.5438347113
N  -1.9207186229  2.2340664783  2.8634240683
C  -1.8280927925  -0.1313509117  3.2273276790
C  -3.6336489256  2.3453737737  -1.8722655241
N  -3.2881764091  3.6179117877  -1.6406961150
C  -3.7526295011  1.8281385208  -3.1628408916
C  -0.9388511694  0.0419302515  4.2739778768
H  -2.1328295716  -1.1236507911  2.9246093635
C  -0.5478704230  1.3274342935  4.6104224318
H  -0.5503720360  -0.8136974663  4.8104135187
C  -1.0687642110  2.3829827844  3.8739037478
H  0.1453931944  1.5117845935  5.4198193579
H  -0.7885927952  3.4042367689  4.1086560280
C  -3.5078194028  2.6555080646  -4.2453547181
H  -4.0054916923  0.7877085224  -3.3138290702
C  -3.1546931756  3.9740479248  -4.0101300477
H  -3.5818006418  2.2733167673  -5.2549293729
C  -3.0601619689  4.4001691715  -2.6919796083
H  -2.9533987211  4.6572162736  -4.8240516617
H  -2.7882994036  5.4258630983  -2.4670203452