81
charge=0, multiplicity=4, basis=def2-QZVPP, mem_total=700000, AUX_BASIS_CORR=rimp2-def2-QZVPPD, SCF_ALGORITHM=GDM, xc_grid=000099000590, num_basis=3410, num_pairs=2862268, num_threads=128
N  1.5210215173  1.1094455886  2.1208086529
C  0.3695756452  1.7731946405  2.2951341418
C  0.2182772952  2.8765545227  3.1323780679
C  1.2277273923  3.6290510731  3.7500988234
C  -0.8300592799  1.3447659405  1.4968450559
H  -0.9931335668  0.2720499503  1.5725498452
H  -0.6919443652  1.5611279280  0.4384358973
H  -1.7230622208  1.8608491286  1.8339817889
C  0.8711984376  5.0010369173  4.2467859285
H  1.2231045661  5.7619356783  3.5503462778
H  1.3383340496  5.2147165152  5.2049444066
H  -0.2042691076  5.1143160567  4.3438303681
N  2.4693687995  3.1868168709  3.8572925954
C  1.6416160625  0.2253815354  1.0029633882
C  1.4566319067  -1.1559027072  1.1505357935
C  1.1240413983  -1.7587389095  2.4729572577
C  1.6164512199  -1.9723553457  0.0358468892
H  1.4777886812  -3.0403018007  0.1464177802
C  1.9454577117  -1.4439581150  -1.2004544675
H  2.0660709616  -2.0949396046  -2.0560101641
C  2.1115511142  -0.0770036417  -1.3360462585
H  2.3612320594  0.3439998295  -2.3018184870
C  1.9629416391  0.7755228495  -0.2468053889
C  2.1733938193  2.2454573181  -0.4210078050
C  3.5203281309  4.0568513972  4.2540165940
C  3.9620145746  4.0744756336  5.5871537755
C  3.2728566201  3.2779546961  6.6476632882
C  5.0569681189  4.8662255517  5.9163928939
H  5.4008347186  4.8827548252  6.9427546316
C  5.7087082519  5.6247758512  4.9591869964
H  6.5683613263  6.2218611553  5.2318610269
C  5.2507189319  5.6184137302  3.6536652066
H  5.7500811946  6.2175430407  2.9025984792
C  4.1510891544  4.8525310922  3.2826865681
C  3.6422156425  4.9045252961  1.8785269215
Cr  2.9683671454  1.2400736311  3.4191227952
H  1.9654858923  -1.6618978568  3.1537652420
H  0.8887538483  -2.8151401375  2.3720664291
H  0.2782526360  -1.2658589145  2.9496567556
H  3.1307582556  2.5465285815  -0.0009307527
H  1.4108979170  2.8418945388  0.0746529915
H  2.1830543131  2.5120253245  -1.4749514402
H  3.4968943900  2.2195311436  6.5572420135
H  2.1900400989  3.3665721254  6.5903533757
H  3.5899310036  3.5971875246  7.6372272128
H  3.2049884990  3.9604166397  1.5754002886
H  4.4344522786  5.1643880926  1.1807238824
H  2.8577521696  5.6566001329  1.7708416206
H  -0.7769322716  3.2887465318  3.1873291586
C  2.1624964772  0.3748810654  5.0669745094
Si  3.1311304978  -0.7215433201  6.2338654343
H  1.3298394031  -0.2103039529  4.6776053624
H  1.7107474459  1.2148285178  5.5966145345
C  3.0604711120  -2.5184655747  5.6692921546
C  2.3325508343  -0.6151331532  7.9443020372
C  4.9528574800  -0.2785560109  6.4468647265
C  4.3744031664  -0.1212485965  2.7746195703
Si  5.9965373536  0.7029779626  2.3660417973
H  4.0317261539  -0.6588414048  1.8884138867
H  4.5354612859  -0.8757390354  3.5473517442
C  5.8065241488  1.7603694387  0.8146081345
C  7.3520815673  -0.5730970332  2.0434049618
C  6.5964723711  1.8343068363  3.7526051703
H  5.5186834320  -0.4562016824  5.5359679527
H  5.3876257369  -0.9055819904  7.2264437504
H  5.1202547394  0.7566484465  6.7389728538
H  2.0317739546  -2.8631780714  5.5650207138
H  3.5508813298  -3.1664318686  6.3965230940
H  3.5579768522  -2.6704826803  4.7126629668
H  1.2815977313  -0.9020504747  7.9076305179
H  2.3787374981  0.3998315889  8.3401424525
H  2.8309212409  -1.2701164907  8.6602092372
H  7.0882291312  -1.2236941655  1.2095549765
H  7.5064909983  -1.2081992482  2.9160570481
H  8.3055819390  -0.0981231508  1.8070270486
H  6.8500120323  1.2769671980  4.6526779924
H  5.8593118926  2.5856798336  4.0321817096
H  7.4920708103  2.3741639035  3.4427645343
H  5.1905620933  2.6375437720  1.0064358825
H  5.3442395934  1.1986908153  0.0031273343
H  6.7732941203  2.1201276808  0.4614265684