13
charge=0, multiplicity=2, basis=def2-QZVPP, AUX_BASIS_CORR=rimp2-def2-QZVPPD, SCF_ALGORITHM=GDM, xc_grid=000099000590, mem_total=3750, num_basis=498, num_pairs=118845, num_threads=1
C  -1.9198112672  -2.4316232740  -8.1762701725
C  -0.4861564261  -2.8094485901  -8.1890427831
C  -2.5339441142  -1.9055848358  -9.4191249700
C  -2.5718334196  -2.1399093054  -6.8769006327
H  -2.2946742087  -0.8426196412  -9.5816747420
H  -3.6225378885  -1.9724340318  -9.3951379793
H  -2.1805034632  -2.4361863174  -10.3043435016
H  0.1739626304  -1.9334570673  -8.0864352362
H  -0.2016911846  -3.2980154424  -9.1219214664
H  -0.2339568635  -3.4781380293  -7.3647109274
H  -2.3460836076  -1.1224239434  -6.5200556565
H  -2.2380311499  -2.8195580978  -6.0916651899
H  -3.6588490373  -2.2048114242  -6.9429867425