16
charge=-1, multiplicity=1, basis=def2-QZVPP, AUX_BASIS_CORR=rimp2-def2-QZVPPD, SCF_ALGORITHM=GDM, xc_grid=000099000590, mem_total=3750, num_basis=628, num_pairs=176434, num_threads=1
Si  -0.2977859671  0.0318705632  1.3116028509
C  1.4748442232  0.0753640055  1.3700872436
C  -1.0467761716  1.7919829603  1.1914746351
C  -1.0399224355  -0.7736962701  2.8842767939
C  -1.2801880929  -0.8948033213  -0.0899556176
H  -0.7861074341  2.3771377105  2.0742876324
H  -2.1358921343  1.7836744305  1.0902082106
H  -0.6394460458  2.3170945331  0.3235500304
H  -0.7773209529  -0.1926725215  3.7692133302
H  -0.6313154535  -1.7779409242  3.0234997544
H  -2.1291099661  -0.8645226993  2.8399923584
H  -1.0139392399  -0.4867457517  -1.0688525762
H  -2.3717506994  -0.8325296533  0.0127786702
H  -1.0066865145  -1.9533858681  -0.1043358561
H  2.0137146230  0.6752038760  0.6348620976
H  2.0178622614  -0.8345710697  1.6307004423