4
charge=0, multiplicity=2, basis=def2-QZVPP, AUX_BASIS_CORR=rimp2-def2-QZVPPD, SCF_ALGORITHM=GDM, xc_grid=000099000590, mem_total=3750, num_basis=147, num_pairs=11148, num_threads=1
C  0.9053734639  -1.2113651483  3.0078430302
H  1.9790715457  -1.2874271367  2.9743467491
H  0.4375495156  -0.2507537882  3.1423075168
H  0.2995454748  -2.0959139269  2.9064627038