34
charge=0, multiplicity=2, basis=def2-QZVPP, AUX_BASIS_CORR=rimp2-def2-QZVPPD, SCF_ALGORITHM=GDM, xc_grid=000099000590, mem_total=60000, num_basis=1449, num_pairs=763822, num_threads=16
C  -0.3940422857  -0.7948353526  -4.6669758015
C  0.9536741785  -0.5039286210  -4.9799720060
C  1.6357715039  -1.7335993194  -5.1032222698
H  1.3806893876  0.4752531893  -5.1173315299
C  0.7201453791  -2.7774575409  -4.8629559371
C  -0.5395332228  -2.2032764408  -4.5771879312
H  -1.4522570118  -2.7390736745  -4.3787279838
H  2.6823394843  -1.8492410560  -5.3321743542
H  0.9417738095  -3.8296447260  -4.8808983867
C  -0.9452688989  -0.5410491732  -1.2781889355
C  -0.1171252448  0.5346158255  -1.6784633708
C  1.1459501837  0.3759534619  -1.0665177323
H  -0.3970257890  1.3330606561  -2.3449556246
C  1.0866207454  -0.8067861820  -0.2842495801
C  -0.2035175448  -1.3637412698  -0.4092258940
H  -0.5505992296  -2.2711694794  0.0536874794
H  1.9815848668  1.0504969061  -1.1432762334
H  1.8928448884  -1.2155913332  0.3017540242
Zr  0.9029229954  -1.5089372933  -2.6805314356
H  -1.1782101557  -0.0715786049  -4.5205659322
H  -1.9646346656  -0.7043862510  -1.5872465016
C  1.6981512015  -3.5289177541  -1.9537871127
C  3.0460261680  -2.8896852912  -2.0936501840
H  1.5637283711  -4.3863791627  -2.6049186939
H  1.4453803964  -3.7978569511  -0.9342049528
C  4.0290580206  -3.5649400696  -3.0377231028
H  3.5171005875  -2.6998430887  -1.1288995356
H  2.9865248388  -1.8004279012  -2.5037208270
C  5.2746038836  -2.7443836759  -3.3198131851
H  3.5162826966  -3.7967832502  -3.9721985136
H  4.3020024302  -4.5272065090  -2.6001380585
H  5.0208110562  -1.7873915043  -3.7782308053
H  5.9523942318  -3.2644178937  -3.9956385650
H  5.8240427440  -2.5300906691  -2.4026605271