51
charge=1, multiplicity=2, basis=def2-QZVPP, mem_total=120000, AUX_BASIS_CORR=rimp2-def2-QZVPPD, SCF_ALGORITHM=GDM, xc_grid=000099000590, num_basis=2086, num_pairs=1434638, num_threads=32
Ni  0.3733556884  -2.8142282622  1.1924542741
N  2.1470772987  -3.1055317209  2.2617046489
N  0.0777119231  -4.9063529433  1.4311902103
N  0.4958662079  -0.6920534610  1.1617320150
N  -0.9591122093  -2.6017669704  -0.4054250524
C  2.4498096868  -4.5211314154  1.9693366613
C  1.2420363313  -5.3883259628  2.2114708263
H  3.2922739511  -4.8781450187  2.5730581105
H  2.7536367927  -4.5850309720  0.9268597420
H  1.4739220460  -6.4286839399  1.9671087299
H  0.9765611051  -5.3786417978  3.2640863727
C  0.0890627803  -5.5677950015  0.1064357217
C  -1.1526077993  -5.2362737633  2.1663050616
C  -0.9459756115  -5.0844087126  -0.8883554806
H  -0.0363904349  -6.6484542317  0.2494588768
H  1.0801952493  -5.4188197860  -0.3198673588
C  -0.7564952097  -3.6737186589  -1.4044819514
H  -0.8714303533  -5.7434886333  -1.7543170119
H  -1.9554996407  -5.2412638656  -0.5139985704
H  -1.4264810385  -3.5080424157  -2.2574971738
H  0.2623066484  -3.5722636887  -1.7763963795
C  3.2323173826  -2.2617302471  1.7159824910
C  2.0349884159  -2.9158545891  3.7162036576
C  2.9693010425  -0.7710385675  1.7441384335
H  3.3840738117  -2.5701156246  0.6822285592
H  4.1645503913  -2.4742370982  2.2541616554
C  1.8756815904  -0.2755057105  0.8206497735
H  2.8206988055  -0.4108863155  2.7600123913
H  3.8905904243  -0.2880989016  1.4156231340
H  2.0811728614  -0.6329200280  -0.1874851445
H  1.9150805553  0.8204123425  0.7830549147
C  -0.4120904975  -0.2561298400  0.0740829977
C  -0.5270213496  -1.3162048066  -0.9899634595
H  -1.3872261534  -0.0481832350  0.5036846617
H  -0.0695483944  0.6830717487  -0.3689929089
H  0.4384905203  -1.4771999127  -1.4642301926
H  -1.2196585355  -0.9848678333  -1.7724189583
H  2.9464862694  -3.2378888118  4.2308291260
H  1.1946132438  -3.4761065912  4.1092472091
H  1.8629455836  -1.8743803263  3.9512864678
H  -1.2442353844  -6.3138047696  2.3379619206
H  -2.0257700383  -4.9039152665  1.6207047538
H  -1.1480414682  -4.7253861214  3.1241707555
C  -2.3780495995  -2.5193772965  -0.0262906369
H  -3.0024462205  -2.2385217540  -0.8809733595
H  -2.7264446638  -3.4719414641  0.3489043811
H  -2.5185765388  -1.7923913976  0.7651600507
C  0.0607300966  -0.0637231250  2.4185717148
H  0.0620458624  1.0287616644  2.3451733116
H  0.7105329278  -0.3492042693  3.2351614677
H  -0.9424443529  -0.3996906306  2.6619785596