77
charge=0, multiplicity=2, basis=def2-QZVPP, mem_total=700000, AUX_BASIS_CORR=rimp2-def2-QZVPPD, SCF_ALGORITHM=GDM, xc_grid=000099000590, num_basis=3222, num_pairs=2518184, num_threads=128
Zr  -0.3698187532  1.1285143283  1.7152018425
C  -0.4688699403  0.8694244047  -0.8467488286
C  0.6594026739  1.6499368971  -0.5285584159
C  1.5204980195  0.8000805890  0.2470224881
Si  0.8136248967  3.4240273986  -1.0823848342
C  0.8888093279  -0.4597543512  0.3976081566
C  -0.3771194634  -0.4168737422  -0.2810277465
Si  -1.7453271781  -1.6704060229  -0.4687946360
H  -1.3299838779  1.2379926913  -1.3759944818
H  2.5030557898  1.0532539960  0.6096676464
H  1.3147414167  -1.3156207519  0.8947295431
Cl  0.3706638219  1.0412964349  4.1052798297
Cl  -2.5930923161  2.1896805916  1.2438412758
C  -2.8236646748  -1.1778555209  -1.9230063625
C  -1.0627714027  -3.3946852408  -0.7764566499
C  -0.3694949754  3.7159781252  -2.5087296037
C  2.5611659961  3.8234955961  -1.6478588615
H  -0.5463883412  -3.4227375457  -1.7358069943
H  -1.8659604406  -4.1306403779  -0.8148747524
H  -0.3547669364  -3.7226505923  -0.0185545519
H  -3.2876986347  -0.2062247870  -1.7606400858
H  -3.6258669954  -1.9015693819  -2.0679197328
H  -2.2522908393  -1.1279795327  -2.8490532829
H  2.8149237548  3.2273227449  -2.5240899924
H  3.3167457621  3.6256549944  -0.8908139626
H  2.6470672596  4.8732053907  -1.9290032081
H  -0.1540447805  3.0616361695  -3.3524522932
H  -0.2992144923  4.7450099632  -2.8613732934
H  -1.4013997048  3.5458796492  -2.2051693201
C  -2.8094371590  -1.5955391489  1.0952147810
C  0.2671134741  4.5221757773  0.3595996625
P  -1.7765795936  -1.1195646860  2.5296998397
H  -3.4000472705  -2.4960845157  1.2564073073
H  -3.5032699724  -0.7668088113  0.9481319493
P  0.6484500613  3.6979679475  1.9495765653
H  -0.8215064917  4.5674974181  0.3085855149
H  0.6424702470  5.5420599426  0.2903900718
C  0.0227445919  4.8219904404  3.3171996048
C  2.5155891379  3.8151010754  2.0515903383
C  -0.7386182087  -2.6493507312  2.8289801321
C  -2.9154348719  -1.0138017498  4.0191435395
C  -3.2547549495  0.4327691695  4.3485990256
H  -2.3137241939  -1.4169866798  4.8363776214
C  -4.1841037282  -1.8432404959  3.8833909983
H  -4.8333938756  -1.4391969066  3.1089212013
H  -4.7415199993  -1.8130088075  4.8206015620
H  -3.9932879530  -2.8861137162  3.6482676678
H  -2.3619347023  1.0142017881  4.5537174974
H  -3.8934494505  0.4697948246  5.2324211261
H  -3.7836747893  0.9147534393  3.5299678824
H  -0.1993706306  -2.7517046107  1.8867615137
C  -1.5213142019  -3.9324221928  3.0603910593
C  0.2939589068  -2.4329641794  3.9235862687
H  -2.2660210350  -4.1180619260  2.2903060928
H  -2.0234419144  -3.9215436635  4.0258763189
H  -0.8389906046  -4.7837665053  3.0643843411
H  0.9292678611  -1.5775454871  3.7214823244
H  0.9222412256  -3.3197166102  4.0183491319
H  -0.1738489696  -2.2615835240  4.8918861366
H  2.8320296981  3.2587947317  1.1688075800
C  3.0663945328  3.0871758930  3.2675670503
C  3.0862539638  5.2206058309  1.9480931343
H  2.7149630118  5.7644197017  1.0828348339
H  4.1724962577  5.1707827166  1.8585218241
H  2.8658570849  5.8035002054  2.8401012424
H  2.7464773238  2.0514066231  3.3011008702
H  2.7438843646  3.5520995452  4.1979806536
H  4.1567777564  3.1152631259  3.2507573117
C  -1.2967718634  4.3148342185  3.8809395091
C  -0.0968290353  6.2826665862  2.9073272792
H  0.7824979111  4.7324511171  4.0963237312
H  -0.8803947168  6.4157354421  2.1636465087
H  0.8227269012  6.6925032660  2.5003300406
H  -0.3700146052  6.8836574395  3.7757185509
H  -2.0748681829  4.2986690102  3.1216058211
H  -1.6275336749  4.9670445281  4.6906452765
H  -1.1998326401  3.3091810265  4.2767628143