48
charge=0, multiplicity=3, basis=def2-QZVPP, mem_total=120000, AUX_BASIS_CORR=rimp2-def2-QZVPPD, SCF_ALGORITHM=GDM, xc_grid=000099000590, num_basis=2152, num_pairs=1374493, num_threads=32
C  -0.7218807193  -1.2194211811  -4.3619033346
C  -0.9944984402  -1.9528610827  -3.1817639350
C  -0.4698349053  -3.2617852135  -3.3345440381
H  -1.5101283253  -1.5789113239  -2.3131193362
C  0.1404029216  -3.3339815773  -4.6061373880
C  -0.0187507279  -2.0748071146  -5.2405159966
H  0.3477667201  -1.8004854349  -6.2156424977
H  -0.9706073107  -0.1874910916  -4.5430925413
H  -0.5020348642  -4.0493982079  -2.6006306483
H  0.6487995662  -4.1914939584  -5.0124567287
C  -4.6993333952  -3.0475350318  -5.7469961016
C  -4.5911463767  -2.0313574246  -4.7702031621
C  -4.2987419617  -2.6586083331  -3.5347030972
H  -4.7394011577  -0.9765976522  -4.9298210212
C  -4.2169616391  -4.0586184736  -3.7509124868
C  -4.4711431278  -4.2980803115  -5.1192596663
H  -4.4923786539  -5.2583201900  -5.6040791045
H  -4.9328745165  -2.9001243146  -6.7872848110
H  -4.1625150419  -2.1579332409  -2.5905900650
H  -4.0237013749  -4.8069781809  -3.0006184293
Zr  -2.3213272525  -3.0229048681  -4.9704532142
H  -0.0551002305  -5.2910001295  -7.3023811565
H  0.5272384907  -3.6897001799  -7.7503598735
C  -0.2444241493  -4.4305107250  -7.9362663948
H  -0.2007513447  -4.7365291360  -8.9778225792
H  -2.0955324266  -6.5512048688  -7.0514777338
C  -2.9067844904  -6.2878564559  -7.7181568708
P  -1.8884275152  -3.7043440479  -7.5085115463
H  -3.6969057475  -8.2756670551  -7.7571116478
H  -2.4982946047  -0.9258056126  -7.2496921161
C  -3.8203903096  -7.2569367336  -8.1001237061
C  -3.0456998022  -4.9703490138  -8.1559137861
C  -2.3273990550  -1.0751808032  -8.3130615966
C  -2.0103814741  -2.3533324983  -8.7608908384
C  -2.4211591392  -0.0173501849  -9.2072636745
C  -4.8978259602  -6.9198995170  -8.9105301324
H  -2.6674724052  0.9729304399  -8.8471608551
C  -4.1272658734  -4.6403433458  -8.9676752983
C  -1.7915213214  -2.5611036945  -10.1224158422
H  -5.6173215541  -7.6742983231  -9.1999188282
C  -5.0498901044  -5.6103846218  -9.3384050535
H  -1.5659667224  -3.5529434457  -10.4917968645
C  -2.1999625695  -0.2314130345  -10.5594772130
H  -4.2504157747  -3.6244611013  -9.3155475645
C  -1.8872685333  -1.5064558574  -11.0161647136
H  -2.2727450142  0.5909821897  -11.2592033227
H  -5.8896183668  -5.3379567126  -9.9640325946
H  -1.7179334190  -1.6772313241  -12.0712905932