50
charge=1, multiplicity=2, basis=def2-QZVPP, mem_total=120000, AUX_BASIS_CORR=rimp2-def2-QZVPPD, SCF_ALGORITHM=GDM, xc_grid=000099000590, num_basis=2211, num_pairs=1596733, num_threads=32
C  1.1049267325  -1.9831660984  4.3426421626
C  0.9017931981  -2.2834934751  5.7021658999
C  2.1408802846  -2.7140133762  6.2354661025
H  -0.0225485385  -2.1791128109  6.2439732289
C  3.1033766380  -2.6589624543  5.2011464597
C  2.4639582699  -2.2270544571  4.0295714318
H  4.1452127243  -2.9166580724  5.2886479264
C  1.4142745714  -5.2572088328  2.5681055012
C  0.4301802459  -4.2524254398  2.5738108650
C  -0.5485720539  -4.5962978224  3.5372191538
H  0.4187666609  -3.3775689443  1.9482199640
C  -0.1972909065  -5.8401221451  4.1127184190
C  1.0224871636  -6.2299397689  3.5166679165
H  2.3197628268  -2.9985499153  7.2591411006
H  2.9254580377  -2.0999939281  3.0649809195
H  0.3553906924  -1.6187527309  3.6632349760
H  1.6020272484  -7.0997368540  3.7566520382
H  -1.4129775234  -4.0050827479  3.7857401612
H  2.2859888184  -5.3005301657  1.9380330613
Ti  1.4584106142  -4.2766808948  4.6588483884
C  -0.8459515521  -6.4343734986  5.3467991384
C  -2.3689401643  -6.3792175469  5.2572172003
C  -0.3891841436  -5.5307038497  6.5022221165
H  -2.7354803601  -5.3568147566  5.1902418701
H  -2.8002483464  -6.8337655991  6.1446650187
H  -2.7243930832  -6.9226342899  4.3838897455
H  -0.8256495911  -4.5410257451  6.4077948202
H  0.7086534145  -5.4419017779  6.5620243639
H  -0.6854783178  -5.9277485904  7.4691630990
C  -0.3974680007  -7.9086152050  5.5287847034
C  -0.3142599985  -8.3624214102  6.9687938434
H  0.5419145114  -8.0875167605  5.0285846402
H  -1.1278113510  -8.5502648501  5.0369536388
O  -1.2395545749  -8.2091344649  7.7546219053
N  0.8610960980  -8.9293155434  7.3787095604
C  2.0056752647  -9.3086659899  6.5719305278
H  0.8285889696  -9.2609037471  8.3300028317
C  2.7790229619  -8.1498719652  5.9856130432
C  3.4790705390  -8.3073482571  4.7870865809
H  3.4812479072  -9.2716399921  4.2943579756
C  4.1540243529  -7.2457411778  4.2063449471
H  4.6870796980  -7.3911326534  3.2774165974
C  4.1473859504  -5.9968892297  4.8181447101
H  4.7055620575  -5.1791066065  4.3854999989
C  3.4898637167  -5.8409549941  6.0384842500
H  3.6046516267  -4.9289574245  6.6031342098
C  2.8143943010  -6.9155585057  6.6146753082
H  2.3186992622  -6.7937978519  7.5671545768
H  1.7126195065  -9.9875738594  5.7694199757
H  2.6657936408  -9.8871529230  7.2175331267