50
charge=0, multiplicity=4, basis=def2-QZVPP, mem_total=120000, AUX_BASIS_CORR=rimp2-def2-QZVPPD, SCF_ALGORITHM=GDM, xc_grid=000099000590, num_basis=2156, num_pairs=1163798, num_threads=32
C  -0.7795071169  -5.9589612509  2.3590575953
C  -0.6975839988  -4.4946809071  2.0835850921
H  0.0061122497  -6.3166616552  3.0289059126
H  -0.7103507699  -6.5158581463  1.4254948318
H  -1.7428417056  -6.2182146761  2.7926722903
C  0.3248948202  -3.7053505654  2.4290290521
C  1.5891988745  -4.0829626780  3.1420189157
H  0.2835204227  -2.6566751722  2.1439965495
H  1.5926037707  -5.1150094001  3.4819307080
H  1.7585663026  -3.4447384058  4.0140699136
H  2.4595246478  -3.9509425199  2.4926388905
Cr  -2.2504499280  -3.6618379912  1.0738741284
Cl  -3.9050118162  -4.5469291938  2.4642993661
Cl  -2.3534642509  -5.3004446905  -0.5463382623
C  -2.1458152477  -2.1036309162  3.5242597800
O  -2.2170275463  -1.9710233298  2.2899257768
N  -1.9393566586  -1.0830437452  4.3603042573
C  -1.7477474111  0.2672953878  3.8720871540
C  -1.8729687546  -1.2940889787  5.7901868399
H  -2.2664282043  -3.0771590457  3.9945836478
H  -1.7978384425  0.2573513886  2.7901687387
H  -0.7756709991  0.6469365290  4.1874072624
H  -2.5215895351  0.9270667675  4.2651377166
H  -2.0219284055  -2.3456165371  6.0137977601
H  -2.6434440044  -0.7156152348  6.3008234937
H  -0.8998846557  -0.9898113619  6.1769030152
H  -6.6871299291  -4.4929316371  -1.2605389638
H  -8.0688469167  -3.2843562929  0.5106947350
C  -5.8162815661  -4.3770601380  -0.6162351645
C  -7.1574992585  -3.2289048096  1.1050892182
N  -5.9959132607  -3.2224569041  0.2437235865
H  -4.9192818222  -4.2470439449  -1.2070471622
C  -4.9885538410  -2.3749742946  0.4657970341
O  -3.8913739838  -2.3918254899  -0.1048722144
H  -7.1831189106  -2.3204782877  1.7005879971
H  -5.2254363139  -1.6102657988  1.2189826539
H  -5.6846310145  -5.2709010768  -0.0090547054
H  -7.1193939506  -4.0845128180  1.7796434565
H  0.8013727024  -0.0860499456  -1.8730293856
H  -0.6483161656  -0.8053809999  -3.9495677910
C  0.8672621198  -1.1519854730  -1.6532250781
C  -0.5143692022  -1.8275421878  -3.5936768183
N  -0.2974468728  -1.8464405693  -2.1635066099
H  0.9191689183  -1.2975631875  -0.5813579438
C  -1.1295010605  -2.5028863451  -1.3511786684
O  -0.9853388353  -2.5443130753  -0.1184419269
H  -1.4027407858  -2.4010239037  -3.8384790429
H  -1.9525434208  -3.0205009255  -1.8405641697
H  1.7715472135  -1.5472978038  -2.1156619773
H  0.3368945198  -2.2656977622  -4.1153614858