25
charge=0, multiplicity=1, basis=def2-QZVPP, AUX_BASIS_CORR=rimp2-def2-QZVPPD, SCF_ALGORITHM=GDM, xc_grid=000099000590, mem_total=30000, num_basis=1154, num_pairs=463359, num_threads=8
Si  -1.1006758948  1.9033124055  -0.1136640581
C  0.7536814555  1.7229919817  -0.1292402462
C  1.3913342423  1.1077201306  0.9518011286
H  0.8148787104  0.7952426406  1.8136074522
C  2.7634826142  0.9049005914  0.9461446336
H  3.2420709665  0.4319387906  1.7935962995
C  3.5209895405  1.3141003976  -0.1418015202
H  4.5920297514  1.1587816412  -0.1461696083
C  2.9024287004  1.9262649272  -1.2231994017
H  3.4905654000  2.2512105541  -2.0713424575
C  1.5305469464  2.1269357206  -1.2171526202
H  1.0621783079  2.6178163594  -2.0604346250
C  -1.7438710473  2.0888726296  1.6190282127
C  -1.1917428080  3.0327276896  2.4895820342
H  -0.3843695635  3.6708050422  2.1513541360
C  -1.6635290990  3.1628410315  3.7855441590
H  -1.2284616653  3.8997077589  4.4477472776
C  -2.6952856152  2.3480217634  4.2341379617
H  -3.0635211643  2.4491133606  5.2467287286
C  -3.2529126785  1.4048379473  3.3836298271
H  -4.0568190049  0.7692373446  3.7307741461
C  -2.7801237121  1.2778141006  2.0850719930
H  -3.2257155265  0.5404187572  1.4283825376
H  -1.7860764401  0.7588498326  -0.7571441247
Cl  -1.6012224160  3.5784966013  -1.2602218658