67
charge=2, multiplicity=2, basis=def2-QZVPP, mem_total=240000, AUX_BASIS_CORR=rimp2-def2-QZVPPD, SCF_ALGORITHM=GDM, xc_grid=000099000590, num_basis=2917, num_pairs=1905754, num_threads=64
N  -1.6417444622  1.4632608842  0.5142770046
C  -1.2885176816  1.3916599349  -0.7214196803
C  -0.8774180012  0.1955778850  -1.5373527815
C  0.5559714800  0.4391491097  -2.0631826504
C  -1.8600692583  0.0580859507  -2.7254460937
H  -2.8775422819  -0.1128809778  -2.3803685020
H  -1.5594477953  -0.7729490348  -3.3536914566
H  -1.8409607492  0.9657198066  -3.3183428490
H  1.2662747234  0.5395939506  -1.2452460909
H  0.5775373067  1.3468569638  -2.6556551448
H  0.8613853431  -0.3909810025  -2.6903085538
C  -0.8948570187  -1.1003456125  -0.7724947509
N  -1.2423040325  -1.3377421171  0.4450113805
O  -0.5104405817  -2.1522665338  -1.4834679884
O  -1.2738462614  2.5350841405  -1.3917498817
C  -1.7663160165  3.5827695680  -0.4961220788
C  -1.8881764093  2.8860751524  0.8670844879
H  -2.7120525000  3.9301996650  -0.9000288136
H  -1.0398539920  4.3885512213  -0.5113343395
H  -2.8998660467  2.9674578413  1.2569350852
C  -0.8907032946  3.3663851761  1.8985301668
C  -0.5251764400  -3.3168599601  -0.6005216886
C  -1.1802211291  -2.8012898198  0.6888194213
C  -2.5615853035  -3.3626856403  0.9488722474
H  -0.5371452721  -2.9746500441  1.5486510479
H  0.5050323483  -3.6358143254  -0.4744585220
H  -1.0936359827  -4.0948840609  -1.0993200270
H  0.1294115542  3.2771237195  1.5294364245
H  -0.9750407034  2.7938287342  2.8201547089
H  -1.0749703065  4.4106625713  2.1417339913
H  -3.2230567688  -3.1836306243  0.1033931547
H  -3.0067961417  -2.9124379273  1.8336134885
H  -2.5069934106  -4.4370799655  1.1134921848
Cu  -1.8386056328  -0.0261991776  1.7654822950
O  -1.4302528367  -1.1772332631  3.4032208004
C  -1.8166148006  -1.1246103256  4.5798930263
O  -3.1624708561  0.9191374226  2.9790956143
C  -3.4239322834  0.6791106193  4.1494029588
O  -4.3474026099  1.3462864307  4.8059100630
N  -2.8210736382  -0.2703383883  4.9769152968
C  -4.5505797092  0.7743565347  6.1305276862
C  -3.3419356274  -0.1316111878  6.3490870003
H  -5.4920264762  0.2342519032  6.1053587376
H  -4.6132517116  1.5949079774  6.8343182209
H  -3.6265985254  -1.0926980801  6.7616592204
H  -2.5925834791  0.3294792589  6.9878073216
C  -1.2440875290  -2.0509790351  5.6074440270
C  -1.9816364979  -3.3991691458  5.5339567755
C  -1.4921875350  -4.2971652782  6.6542493566
H  -1.7705882038  -3.8497373998  4.5642123549
H  -3.0627468645  -3.2729420771  5.5975261493
C  0.2448487899  -2.2856348418  5.3945782430
H  -1.3922911450  -1.6358774508  6.6034341612
C  0.7947424277  -3.3909261104  6.2414174420
H  0.8016193204  -1.3692026551  5.6033031060
H  0.4354051427  -2.5020269450  4.3397050370
C  -0.0095510230  -4.2991578962  6.8514793999
C  2.2799430624  -3.3994416009  6.3630115369
C  0.5056041994  -5.3727538179  7.7460947528
H  -1.8263132378  -5.3208590624  6.4717070667
H  -1.9691434077  -4.0163046151  7.5995489203
H  2.7475668889  -3.0243733859  5.4535091614
H  2.6852366798  -4.3842277763  6.5684333589
H  2.6063434323  -2.7382077142  7.1708932125
H  1.4186241860  -5.0991661756  8.2646646547
H  0.7170365791  -6.2801542201  7.1728502775
H  -0.2384219925  -5.6494271493  8.4906698639