16
charge=0, multiplicity=1, basis=def2-QZVPP, AUX_BASIS_CORR=rimp2-def2-QZVPPD, SCF_ALGORITHM=GDM, xc_grid=000099000590, mem_total=7500, num_basis=642, num_pairs=185088, num_threads=2
C  1.2551757931  -0.5375519939  1.4641980534
C  0.6958375577  0.5542527208  0.9283257290
H  0.9543120264  -1.5285243546  1.1530595923
H  2.0228184365  -0.4924032569  2.2219598196
C  1.0953548067  1.9076103112  1.3420426419
C  0.5355672938  2.9994080724  0.8066251835
H  -0.2324789907  2.9542507788  0.0492729757
H  0.8364105826  3.9903810778  1.1177811850
C  -0.3661902435  0.4088327204  -0.1212471909
H  -0.5631970880  -0.6388672215  -0.3313066961
H  -0.0723793648  0.8880650738  -1.0553109311
H  -1.3031296744  0.8692801336  0.1927486759
C  2.1577500708  2.0530358872  2.3912426969
H  3.0943123785  1.5917634806  2.0773643014
H  1.8638136187  1.5746208759  3.3256963220
H  2.3554527966  3.1007456942  2.6005976415