55
charge=0, multiplicity=2, basis=def2-QZVPP, mem_total=240000, AUX_BASIS_CORR=rimp2-def2-QZVPPD, SCF_ALGORITHM=GDM, xc_grid=000099000590, num_basis=2280, num_pairs=1674363, num_threads=64
C  -0.5418965864  -0.7913172143  -4.5934871902
C  0.7576385958  -0.3375616184  -4.9257230787
C  1.6440934344  -1.4413699094  -4.8098957311
C  1.1002878808  1.0046785847  -5.4733608084
C  0.9016739303  -2.5512576875  -4.3328253284
C  -0.4496761051  -2.1519334443  -4.2081160822
C  -1.5802007016  -3.0689712086  -3.8989851312
C  3.0343371385  -1.4708320987  -5.3326312620
C  1.4303957612  -3.9201355021  -4.0859041754
C  -1.0397384080  -0.2289369736  -1.3640465082
C  -0.1348389458  0.8642855457  -1.3972563582
C  1.0235475641  0.4849370963  -0.6708776890
C  -0.4095481543  2.2318291060  -1.9198773406
C  0.8496502464  -0.8452428929  -0.2263136257
C  -0.4093899078  -1.3029042502  -0.6824825191
C  2.1718937494  1.3872177983  -0.3894872734
C  1.7595751951  -1.6435588821  0.6370789541
Ti  0.8708939560  -0.8738925800  -2.6382780463
C  -1.7852754042  -0.0209504072  -4.8635143820
C  -2.4915205420  -0.1618218835  -1.6802735285
C  -1.0303316089  -2.6043617663  -0.3088751087
H  2.4720993489  1.9491765825  -1.2727910661
H  3.0455259201  0.8446938066  -0.0425054403
H  1.9101247206  2.1163066045  0.3806658816
H  2.7051301845  -1.1405971866  0.8142436800
H  1.9840011911  -2.6168063184  0.2019839592
H  1.2994759992  -1.8232989334  1.6111578318
H  -1.8810312028  -2.8439192008  -0.9401521194
H  -1.3913909934  -2.5865290648  0.7234391163
H  -0.3228840665  -3.4291762429  -0.3832439061
H  -2.7295612936  0.6328399175  -2.3784667153
H  -3.0522200772  0.0425670808  -0.7644748528
H  -2.8840180229  -1.0910723470  -2.0838455099
H  -1.1517102346  2.2231387553  -2.7140532006
H  0.4884699278  2.6988003147  -2.3201180923
H  -0.7899646420  2.8898771197  -1.1334863266
H  -1.3190197413  -3.8007459225  -3.1380278123
H  -1.8742219533  -3.6289226310  -4.7901866320
H  -2.4618383308  -2.5372314968  -3.5542708129
H  2.4667613397  -3.8989233541  -3.7576424137
H  1.3889074738  -4.5329249257  -4.9905019966
H  0.8578113073  -4.4397566952  -3.3201281882
H  3.5872809955  -0.5629015281  -5.1038437190
H  3.0168215986  -1.5741928514  -6.4201963599
H  3.6063433774  -2.3064751788  -4.9404551206
H  2.1210013515  1.2908699277  -5.2273831867
H  0.4416472002  1.7782919604  -5.0845533028
H  1.0154580784  1.0266916137  -6.5640142384
H  -1.7291191269  1.0064522415  -4.5097895838
H  -2.6625256911  -0.4793295589  -4.4211088573
H  -1.9591277649  0.0297949359  -5.9410493357
C  3.0120438049  -1.0482538463  -2.3266423795
H  3.4286429505  -0.1712911035  -2.8381529439
H  3.4716977751  -1.9209052359  -2.7864248239
H  3.3611575081  -1.0042370509  -1.2999993189