34
charge=0, multiplicity=1, basis=def2-QZVPP, AUX_BASIS_CORR=rimp2-def2-QZVPPD, SCF_ALGORITHM=GDM, xc_grid=000099000590, mem_total=60000, num_basis=1546, num_pairs=764693, num_threads=16
P  4.0054283726  0.3468621294  0.5817832325
C  5.7340567684  -0.2019014035  0.8907010550
C  6.2026790951  -0.6467585876  2.1247800716
H  5.5338327370  -0.6804405267  2.9730777667
C  7.5230538113  -1.0488387852  2.2720675101
H  7.8740788310  -1.3899671836  3.2373157649
C  8.3887933061  -1.0205590401  1.1883516428
H  9.4172544538  -1.3361886148  1.3050422285
C  7.9302516382  -0.5790988027  -0.0460416477
H  8.6007214401  -0.5477354281  -0.8948546576
C  6.6163265300  -0.1630265017  -0.1904634487
H  6.2672229716  0.1946235710  -1.1516342626
C  3.3299394923  0.4174701054  2.2916985247
C  3.5458243746  1.5931585664  3.0128395424
H  4.0797245125  2.4136417492  2.5487661060
C  3.0864430200  1.7185192873  4.3142386277
H  3.2658484237  2.6341700388  4.8623111582
C  2.3845348264  0.6774593289  4.9079032554
H  2.0163581791  0.7779210412  5.9204828712
C  2.1528510491  -0.4892837035  4.1939207866
H  1.6053023319  -1.3039384949  4.6497854810
C  2.6259039527  -0.6217996422  2.8956719349
H  2.4480278829  -1.5377639968  2.3502358273
C  3.2366084123  -1.1990136557  -0.0539748239
C  3.8526444438  -2.4480072495  -0.0180647619
H  4.8439086569  -2.5453089971  0.4014195299
C  3.2008484022  -3.5677671146  -0.5159613597
H  3.6920198366  -4.5316166841  -0.4838073038
C  1.9239483522  -3.4562623351  -1.0470003803
H  1.4171130752  -4.3309212790  -1.4330917415
C  1.3016717561  -2.2152712666  -1.0861916596
H  0.3083966041  -2.1190675444  -1.5046660647
C  1.9574867954  -1.0941116858  -0.6031518864
H  1.4743156647  -0.1255772944  -0.6493989191