25
charge=0, multiplicity=3, basis=def2-QZVPP, AUX_BASIS_CORR=rimp2-def2-QZVPPD, SCF_ALGORITHM=GDM, xc_grid=000099000590, mem_total=30000, num_basis=1110, num_pairs=517861, num_threads=8
C  -0.2015745072  -0.3313222817  0.5644486818
C  -1.1700194196  0.3440321272  1.3421632923
C  -1.3929241816  1.6157739819  0.7664086134
H  -1.6712099626  -0.0524510107  2.2082271291
C  -0.5727364805  1.7226828499  -0.3691861055
C  0.1658935119  0.5156752720  -0.4943298596
H  0.8599559999  0.2797610523  -1.2811562571
H  0.1607637279  -1.3314405933  0.7344939820
H  -2.0948555954  2.3542013319  1.1162704211
H  -0.5346380549  2.5583385737  -1.0449597557
C  -3.2707972446  -1.6566785999  0.1712848139
C  -3.1266282626  -1.9528948335  -1.2001134639
C  -3.7781464151  -0.9339704565  -1.9262973082
H  -2.5915334677  -2.7876553067  -1.6202388947
C  -4.3281826054  -0.0095869221  -1.0135475426
C  -4.0126230046  -0.4564990218  0.2864617923
H  -4.2663888056  0.0425687590  1.2063425740
H  -2.8627865080  -2.2271342019  0.9883323012
H  -3.8321576267  -0.8647171865  -2.9968730366
H  -4.8648781758  0.8889890379  -1.2667591192
V  -2.0501877821  0.0183959594  -0.7321531167
C  -1.6147285882  0.5002874864  -2.8041283967
H  -0.7054515537  1.0810312917  -2.9384871977
H  -2.4359066890  1.0754156463  -3.2365445898
H  -1.5060983089  -0.4146829548  -3.3900789570