13
charge=1, multiplicity=2, basis=def2-QZVPP, AUX_BASIS_CORR=rimp2-def2-QZVPPD, SCF_ALGORITHM=GDM, xc_grid=000099000590, mem_total=7500, num_basis=694, num_pairs=209881, num_threads=2
C  0.4817336777  -1.2891342527  -1.1950626011
C  1.4930056966  -0.2941995036  -1.1694878210
C  1.6527116103  0.1260868815  0.1794173285
H  2.0717966150  0.0481386986  -2.0115988957
C  0.7178663115  -0.5652199264  0.9685881630
C  -0.0301998038  -1.4259382811  0.1195912967
H  -0.8180148517  -2.0921986476  0.4307688540
H  0.1320874896  -1.8133207829  -2.0678099085
H  2.3397686838  0.8800827465  0.5256318844
H  0.5618457836  -0.4351125716  2.0266009485
Ta  -0.5441501042  0.7665844296  -0.6131175105
Br  -0.6753101787  2.6909348181  0.8092082055
Br  -2.0909909295  0.6623163917  -2.4337199437