61
charge=0, multiplicity=2, basis=def2-QZVPP, mem_total=240000, AUX_BASIS_CORR=rimp2-def2-QZVPPD, SCF_ALGORITHM=GDM, xc_grid=000099000590, num_basis=2750, num_pairs=1998432, num_threads=64
Si  -0.0009848862  0.2923249630  0.2799924126
C  1.8655186826  0.0314170631  0.0984116149
C  2.6446189065  -0.8603535386  0.8360713205
H  2.1845966191  -1.4668731818  1.6069018223
C  4.0010303410  -1.0081126049  0.5860059938
H  4.5883870371  -1.7071467306  1.1677458765
C  4.6045782965  -0.2597680866  -0.4157956845
H  5.6620989796  -0.3721438353  -0.6169605456
C  3.8477079577  0.6285313482  -1.1653018649
H  4.3302258283  1.2041875810  -1.9449281317
C  2.4855561088  0.7748110036  -0.9155925850
P  1.4366235525  1.9713730252  -1.8522707748
C  -0.5515513206  0.8546370652  2.0005541654
C  0.0151077300  0.5325668330  3.2313391603
H  0.9157703667  -0.0682170852  3.2691328761
C  -0.5414456425  0.9908424851  4.4186341383
H  -0.0771580059  0.7473721292  5.3659546450
C  -1.6947747129  1.7617976873  4.3896417705
H  -2.1341946520  2.1187284187  5.3121752622
C  -2.2823293980  2.0833079633  3.1731245093
H  -3.1808490361  2.6874146901  3.1660984080
C  -1.7071930623  1.6510973254  1.9828273449
P  -2.4089613772  2.0741501247  0.3225665496
C  -0.8579612451  -1.3896507190  0.0188172478
C  -0.8797221228  -2.4472229240  0.9268796297
H  -0.3645383749  -2.3507548498  1.8755371003
C  -1.5807796955  -3.6132975119  0.6546963707
H  -1.5968394586  -4.4196980736  1.3770246642
C  -2.2687201051  -3.7434985850  -0.5451246835
H  -2.8199554870  -4.6498903010  -0.7604142785
C  -2.2568648916  -2.7050344734  -1.4648222513
H  -2.7983689176  -2.8176900766  -2.3957935626
C  -1.5638457475  -1.5306210362  -1.1830081594
P  -1.4840050279  -0.0993915168  -2.3456211304
Os  -0.8084642886  1.8109938587  -1.3325252058
C  -3.9801854258  1.1064009835  0.3396637329
C  -3.0465202236  3.7881278176  0.5254443430
C  -3.1261618681  -0.0851084015  -3.1781491542
C  -0.4321869880  -0.8056338267  -3.6855948450
C  2.1426286139  3.5949936625  -1.3321375302
C  2.0800718088  1.8743445102  -3.5795687152
H  -3.7953320214  3.8744254550  1.3106392557
H  -3.4873993848  4.1010350893  -0.4179731936
H  -2.2121151487  4.4475385924  0.7468367619
H  -4.5554763744  1.2894437760  1.2455378496
H  -4.5795828961  1.3817444791  -0.5251483954
H  -3.7404921656  0.0480755714  0.2806501091
H  0.5527749627  -1.0111451153  -3.2753542484
H  -0.3361326706  -0.0793211434  -4.4889639527
H  -0.8481883043  -1.7310364028  -4.0820521453
H  -3.9037094535  0.0754299219  -2.4386861935
H  -3.3342509097  -1.0049142422  -3.7223413332
H  -3.1417644836  0.7472469956  -3.8775917555
H  3.2184208016  3.6445034508  -1.4978890817
H  1.9334837894  3.7385715934  -0.2760075511
H  1.6525733278  4.3882956274  -1.8921107370
H  3.1286228831  2.1560199915  -3.6567584800
H  1.4908160265  2.5519410350  -4.1930732601
H  1.9546827048  0.8673447495  -3.9634340073
N  -1.4833187904  3.1986169381  -2.6084798603
N  -1.8641807606  3.9862404572  -3.3202916376