35
charge=0, multiplicity=2, basis=def2-QZVPP, AUX_BASIS_CORR=rimp2-def2-QZVPPD, SCF_ALGORITHM=GDM, xc_grid=000099000590, mem_total=60000, num_basis=1558, num_pairs=887645, num_threads=16
Ti  -2.6875274445  2.7233394497  2.0773462952
Cl  -3.5028985624  1.8869615631  -0.0598712718
C  -4.2326966035  3.0248718177  3.8514292270
C  -4.8325029449  2.1976638701  2.8861013139
C  -4.1121440411  0.9807951121  2.8610043373
H  -5.6657791112  2.4479129699  2.2539237633
C  -3.0803625555  1.0641570019  3.8116512482
C  -3.1345131785  2.3318132895  4.4133853751
H  -2.4601402519  2.7111984668  5.1629005377
H  -4.5509603052  4.0196990197  4.1080734641
H  -4.2995282676  0.1607603952  2.1923659060
H  -2.3435681921  0.3035566077  4.0077963071
C  -2.9934339929  5.0561189646  1.6796551531
C  -2.2060398638  4.9010430867  2.8450323804
C  -0.9839548160  4.3051898452  2.4779713076
H  -2.4860617370  5.1873520332  3.8428991635
C  -1.0107446224  4.1176907242  1.0744094268
C  -2.2384004415  4.5902877767  0.5898344133
H  -2.5806265484  4.5180912321  -0.4254945451
H  -3.9939183862  5.4516416061  1.6324231347
H  -0.1671579887  4.0800515194  3.1420038793
H  -0.2509961716  3.6379354476  0.4815991504
O  -1.0238771638  1.2474117618  1.7485053398
C  0.1117278541  1.1958200516  2.6390823798
C  0.6112656188  -0.2334484123  2.5859541769
H  -0.2133377142  1.5131526342  3.6266765831
H  0.8621890329  1.9006932657  2.2773647095
C  0.2443284627  -0.6467469210  1.1666728897
H  0.0779213472  -0.8497384624  3.3099717448
H  1.6750628478  -0.3050480018  2.8006294336
C  -1.0998459496  0.0193398405  0.9737380300
H  0.1880636675  -1.7246473235  1.0335626650
H  0.9713239525  -0.2551489781  0.4551541307
H  -1.9169716721  -0.5838803175  1.3703028846
H  -1.3422442565  0.2924790634  -0.0455749346