36
charge=0, multiplicity=2, basis=def2-QZVPP, AUX_BASIS_CORR=rimp2-def2-QZVPPD, SCF_ALGORITHM=GDM, xc_grid=000099000590, mem_total=60000, num_basis=1501, num_pairs=812263, num_threads=16
Ir  6.2261120001  2.7321393341  -1.2868694335
Cl  7.0255169141  2.4378694776  0.8682883053
P  5.5062963185  4.0353654522  -3.0166137449
C  6.8710540817  4.9058751251  -3.9697221631
C  4.4080271070  3.2626011449  -4.3059258623
C  4.5803061361  5.4345500732  -2.1919472825
C  8.1551070507  4.0921613874  -4.0673501460
H  7.0776483178  5.7719931989  -3.3362801380
C  6.4578594726  5.4075081325  -5.3492731657
H  6.3280306652  4.5864514201  -6.0506457208
H  7.2453404261  6.0466728012  -5.7472770197
H  5.5418558527  5.9902119940  -5.3433397037
H  8.5668403970  3.8643780246  -3.0907285705
H  8.9015431753  4.6622634206  -4.6205073376
H  8.0034763362  3.1532989243  -4.5951829378
H  5.3992068353  6.0146323261  -1.7599471874
C  3.7397234115  4.9177226025  -1.0292694524
C  3.7923761944  6.3450640975  -3.1211016520
H  4.4288347307  6.8475955877  -3.8437930741
H  3.2998059988  7.1207732698  -2.5348591002
H  3.0160691196  5.8132979950  -3.6658473754
H  4.3481226571  4.3820156488  -0.2995845481
H  2.9439358412  4.2526512268  -1.3489042947
H  3.2839239396  5.7581163075  -0.5059992376
C  5.1225414206  2.0941646163  -4.9721762129
H  4.2690884944  4.0560071446  -5.0427061066
C  3.0415492545  2.8515056231  -3.7820154967
H  6.0790741042  2.3770969502  -5.4036399852
H  4.5021361188  1.7044218759  -5.7789003771
H  5.2939789114  1.2904681887  -4.2621137254
H  3.1256280773  2.1361517004  -2.9700755667
H  2.4846545021  2.3735644029  -4.5882057338
H  2.4537430740  3.6986902098  -3.4416562884
Cl  4.8513337063  0.8226314390  -1.5789336197
H  7.3974372429  2.2038611029  -2.1271164565
H  7.1546021142  4.0370777738  -1.2320695880