38
charge=0, multiplicity=1, basis=def2-QZVPP, AUX_BASIS_CORR=rimp2-def2-QZVPPD, SCF_ALGORITHM=GDM, xc_grid=000099000590, mem_total=60000, num_basis=1626, num_pairs=890415, num_threads=16
C  2.0072795010  -1.9641428800  0.4091030176
C  1.9830137579  -0.6958869195  1.2815496806
C  0.8236072557  -1.7134927789  -0.5597463082
C  -0.2210737421  -0.9427697781  0.2484721680
H  0.4468596368  -2.6483350718  -0.9597473593
H  1.1970882790  -1.1188880722  -1.3899998270
C  0.5021613488  -0.4195427692  1.5091823369
H  2.4465884330  0.1048092053  0.7073564801
H  2.5434510239  -0.7940531099  2.2075907381
C  0.0749407656  1.0443979949  1.6061705721
H  0.1543586811  -0.9701464801  2.3808560070
H  -1.0113651831  -1.6247541513  0.5474596663
C  -0.8809684618  0.3125077393  -0.3699367938
C  3.2619010565  -2.0985410347  -0.4301158296
C  1.7174721896  -3.1973665398  1.2723001196
O  0.6488592779  -3.7557545405  1.2718113635
O  4.0554105946  -1.2161986150  -0.6622231157
O  3.3362608100  -3.3350787559  -0.9654217862
O  2.6530647310  -3.6321655760  2.1523041832
C  4.0239979015  -3.2218836300  2.1288568285
H  4.1486455225  -2.1524104603  1.9905381269
H  4.5631694257  -3.7574972973  1.3503750356
H  4.4272131412  -3.5012570523  3.0967652715
C  4.4338822144  -3.5629702593  -1.8663684123
H  4.3669891031  -2.8971330752  -2.7227149526
H  4.3434303092  -4.5964342864  -2.1793998021
H  5.3832026358  -3.3975255253  -1.3629065616
O  -1.0700821808  1.1754765603  0.7745236646
H  0.8814920433  1.7100957094  1.2738736504
H  -0.2161282581  1.3495782781  2.6090708259
C  -2.2567026970  0.0233389830  -0.9320513727
C  -0.0271974379  1.0364085742  -1.4040124731
H  0.9943178300  1.2000062945  -1.0660311083
H  -0.4722567585  2.0077350798  -1.6083679991
H  0.0183251039  0.4861794381  -2.3424018617
H  -2.8974347391  -0.4015889023  -0.1624560537
H  -2.1889287078  -0.6860743310  -1.7556779757
H  -2.7249544069  0.9332580355  -1.3034301439