23
charge=0, multiplicity=2, basis=def2-QZVPP, AUX_BASIS_CORR=rimp2-def2-QZVPPD, SCF_ALGORITHM=GDM, xc_grid=000099000590, mem_total=30000, num_basis=1129, num_pairs=517087, num_threads=8
C  -0.1780771326  -1.0803394442  0.0202243920
C  0.7673196540  -0.3573647231  -0.7527656374
C  1.1390460557  0.7898525137  -0.0428135292
H  1.0899367995  -0.6122696323  -1.7447519473
C  0.4288068327  0.8139660403  1.1801200741
C  -0.3617307812  -0.3659886554  1.2311887762
H  -0.9770417475  -0.6789200437  2.0546748296
H  -0.6398266437  -2.0119769389  -0.2550715090
H  1.7926498570  1.5628050899  -0.4009957522
H  0.5019659584  1.5729912237  1.9393606020
C  -3.4194927118  2.0492659461  -0.7167609016
C  -2.9073216062  2.4042323269  0.5611865976
C  -2.8637501175  1.2324419562  1.3385914665
H  -2.5872275700  3.3844750940  0.8631037039
C  -3.3546601393  0.1554539902  0.5523031503
C  -3.7158645867  0.6681222834  -0.7031255547
H  -4.0826812317  0.0968562418  -1.5352810368
H  -3.5280170645  2.7088766116  -1.5577902675
H  -2.5135721215  1.1683732183  2.3536378633
H  -3.4250377119  -0.8744783116  0.8576253440
Ta  -1.2942468418  0.9669693671  -0.4797055053
Br  -0.3978914591  3.2468565565  -1.3651778234
Br  -1.4878356903  0.1877592894  -2.9581173351