33
charge=1, multiplicity=2, basis=def2-QZVPP, AUX_BASIS_CORR=rimp2-def2-QZVPPD, SCF_ALGORITHM=GDM, xc_grid=000099000590, mem_total=60000, num_basis=1560, num_pairs=898280, num_threads=16
N  -0.2360505813  0.2768339956  -3.1774181948
C  -0.4042521671  -0.9946581901  -3.5677796253
N  0.5732468487  -0.3157406654  -0.2553434018
S  2.2150139387  -1.5235945514  -2.6276423456
S  0.4053599769  2.6333887883  -1.2841797394
C  -1.6723889428  -1.5263040897  -3.7434001697
C  -2.7764996494  -0.7262966322  -3.4951058240
H  -1.7941596074  -2.5515076501  -4.0629251795
C  -2.5879875087  0.5770159794  -3.0629776613
H  -3.7748275430  -1.1197487650  -3.6219402959
C  -1.2954886212  1.0525354908  -2.9060879232
H  -3.4335286165  1.2137954198  -2.8449459832
C  -1.0144934294  2.4505062107  -2.4464944891
H  -1.8910089827  2.9104779764  -1.9991958466
H  -0.7162389609  3.0691611802  -3.2929390395
C  -0.2398637937  1.8861946927  0.2812281826
C  -0.4454250185  0.4036583270  0.2290293575
H  -1.1465734030  2.4155513817  0.5592018221
H  0.5323831257  2.1413049647  1.0057271117
C  0.4414582626  -1.6353916313  -0.4309229212
C  -0.7167019146  -2.3017766570  -0.0592210299
C  -1.7608826656  -1.5717232815  0.4883789463
H  -0.8051115666  -3.3696141156  -0.2020999062
C  -1.6317274406  -0.1974127245  0.6225681300
H  -2.6747143284  -2.0654582107  0.7862632300
H  -2.4430495449  0.3967064658  1.0192370966
C  0.8347763393  -1.7986661146  -3.8192931482
H  1.2771308131  -1.5144363200  -4.7740786075
H  0.6207274965  -2.8627380729  -3.8623218598
C  1.5953126420  -2.3327136785  -1.0829511323
H  2.4702183603  -2.3160397373  -0.4344490271
H  1.3694971835  -3.3700596506  -1.3123574113
Pd  1.6217092991  0.7262598650  -2.0633831143