5
charge=0, multiplicity=1, basis=def2-QZVPP, AUX_BASIS_CORR=rimp2-def2-QZVPPD, SCF_ALGORITHM=GDM, xc_grid=000099000590, mem_total=3750, num_basis=177, num_pairs=16073, num_threads=1
C  0.2627686527  -0.9593576087  -0.1678945304
H  1.3491013895  -0.9593596415  -0.1678952996
H  -0.0993644313  -1.8496824477  -0.6741714942
H  -0.0993628000  -0.0757448302  -0.6857954850
H  -0.0993728108  -0.9526554720  0.8562868092