59
charge=0, multiplicity=2, basis=def2-QZVPP, mem_total=240000, AUX_BASIS_CORR=rimp2-def2-QZVPPD, SCF_ALGORITHM=GDM, xc_grid=000099000590, num_basis=2446, num_pairs=1753677, num_threads=64
Tc  -0.9198616113  2.2479273160  0.2100391084
S  -0.4710363549  1.6276307226  -2.0784651667
C  -1.8418929079  0.6725385304  -2.8122828569
S  -1.8138101567  0.0938968191  0.8171417030
C  -0.8158890618  -1.2826605377  0.1541818916
H  -1.4439552610  0.0652665464  -3.6224680584
H  -2.6081381155  1.3248953371  -3.2273196910
H  -2.2935556884  0.0283730492  -2.0616173312
H  -0.4109521265  -1.0170059533  -0.8193063393
H  -1.4561666603  -2.1567936844  0.0566794751
H  0.0041895693  -1.5402427505  0.8218070384
P  -3.1289075749  2.9066605157  -0.3265907992
C  -4.4319529699  1.7169510316  -0.8590790342
C  -3.3457353096  4.2227011833  -1.5978323617
P  -1.5687083190  3.0508009580  2.3394545662
C  -0.5303001860  4.0351606518  3.5158709642
C  -2.2575622550  1.8489305942  3.5568066602
P  0.1762689931  4.3069770161  -0.1917633060
C  -0.4128881391  5.9919689228  0.3035187946
C  0.6756577915  4.7113338880  -1.9204680688
P  1.2926975037  1.5594621832  0.7072436649
C  2.1825891223  0.2498645479  -0.2368316177
C  1.6672720969  1.0300419101  2.4323031627
H  -2.8941330022  5.1482232903  -1.2530135669
H  -4.3945036834  4.4044436576  -1.8282990648
H  -2.8241358801  3.9103983705  -2.4993633283
H  -4.3432303815  0.8157464181  -0.2586420097
H  -4.2999410037  1.4433119905  -1.8991374909
H  -5.4213134698  2.1543260362  -0.7328489502
H  1.2112281196  3.8735484872  -2.3542123932
H  1.2930367927  5.6082435466  -1.9518947339
H  -0.2148194468  4.8590731319  -2.5240627344
H  -0.6605415284  6.0300708726  1.3585701580
H  -1.3029313696  6.2553235434  -0.2612402714
H  0.3530442023  6.7395931351  0.1023329775
H  1.5348318107  1.8664170774  3.1120369648
H  2.6822136993  0.6485741503  2.5342985517
H  0.9583023956  0.2539146889  2.7103353323
H  1.9386113593  0.3552386872  -1.2903090679
H  1.8711785587  -0.7360365472  0.0876417145
H  3.2578784878  0.3434340285  -0.0917183300
H  -0.0659636424  4.8833892130  3.0249077318
H  0.2587063597  3.4071032274  3.9198212072
H  -1.1320076515  4.4033168782  4.3457602751
H  -2.6413538740  2.3605449039  4.4385915078
H  -1.4803302899  1.1488139526  3.8476435988
H  -3.0455737598  1.2653199854  3.0925357512
C  -4.0033740118  3.6097367238  1.1689616170
C  -3.0178682817  4.2083134914  2.1472058772
H  -4.5251185185  2.7726085996  1.6322257714
H  -4.7647308457  4.3261329968  0.8588576125
H  -3.4768849466  4.4020669839  3.1177321131
H  -2.6330870019  5.1546603864  1.7740160991
C  1.8370171307  4.2978403737  0.6545014847
C  2.4988092622  2.9579031534  0.4271906235
H  1.6623955844  4.4628613182  1.7159549233
H  2.4516771207  5.1229283541  0.2916656678
H  3.3846848459  2.8234303310  1.0487957679
H  2.8213144803  2.8714957646  -0.6103737842