20
charge=0, multiplicity=2, basis=def2-QZVPP, AUX_BASIS_CORR=rimp2-def2-QZVPPD, SCF_ALGORITHM=GDM, xc_grid=000099000590, mem_total=15000, num_basis=975, num_pairs=376274, num_threads=4
C  -0.6207435750  -0.1502375449  -0.2267263989
C  0.5317920393  0.6292215455  -0.5304513117
C  1.5111644353  -0.2388843902  -1.0646503189
H  0.6417473817  1.6870719096  -0.3679629875
C  0.9878487252  -1.5602957405  -1.0817908165
C  -0.3394921608  -1.4907616754  -0.5779607118
H  -1.0075817905  -2.3279419659  -0.4655322137
H  -1.5355654167  0.2138440525  0.2069370537
H  2.4979053867  0.0434429601  -1.3909692197
C  1.7017179998  -2.7863699411  -1.5252558266
Mo  -0.3312168626  -0.1847018249  -2.5475454946
C  0.6464985563  0.5061570543  -4.1215749027
O  1.2587775753  0.9304306707  -5.0104089733
C  -1.4473665976  1.4016252395  -2.7901534918
C  -1.8008127437  -1.1202549088  -3.4844191985
O  -2.1044568646  2.3508942281  -2.8995859287
O  -2.6770404009  -1.6847297149  -3.9927612972
H  2.4435707234  -2.5618479008  -2.2881507477
H  1.0133180051  -3.5277368931  -1.9243094637
H  2.2262955842  -3.2468151598  -0.6851477501