67
charge=0, multiplicity=2, basis=def2-QZVPP, mem_total=240000, AUX_BASIS_CORR=rimp2-def2-QZVPPD, SCF_ALGORITHM=GDM, xc_grid=000099000590, num_basis=2714, num_pairs=1917308, num_threads=64
Ir  5.8088066293  2.3294062832  -0.8850260694
Cl  7.3278173184  4.1491001290  -0.2576911037
P  5.2790390378  3.6780055525  -2.7675275950
C  6.7991792146  4.3986321867  -3.6286441654
C  4.2760791732  2.9732886550  -4.1741445953
C  4.4183642048  5.2177456809  -2.1311658504
C  8.0265836638  3.4974107618  -3.5954243611
H  7.0240246891  5.2643802063  -3.0047149895
C  6.5576415862  4.8751858451  -5.0585978925
H  6.4646479064  4.0390725983  -5.7482528283
H  7.4168043884  5.4618576885  -5.3848699545
H  5.6789861662  5.5002546856  -5.1746923981
H  8.3605243482  3.3186082206  -2.5806824160
H  8.8402973693  3.9850403884  -4.1344627053
H  7.8470399702  2.5365246271  -4.0722923939
H  5.1567328765  5.5448964335  -1.3959768857
C  3.1226914705  4.9319954843  -1.3797485226
C  4.2109697776  6.3415156362  -3.1348447902
H  5.1455119499  6.7304040305  -3.5271351465
H  3.6996025256  7.1712206112  -2.6451923213
H  3.5867701610  6.0331728752  -3.9731264569
H  3.1816762232  4.0275928274  -0.7809700710
H  2.2757561344  4.8380767463  -2.0535793519
H  2.9090530118  5.7614792310  -0.7056516820
C  4.9691528163  1.7411286586  -4.7461405810
H  4.2853067808  3.7500673715  -4.9391012305
C  2.8203163475  2.6889672321  -3.8286446604
H  5.9888894594  1.9450390944  -5.0603919641
H  4.4212342254  1.3916750649  -5.6219604436
H  4.9960185373  0.9351870122  -4.0206603555
H  2.7224386625  2.0784859015  -2.9378239502
H  2.3580896057  2.1461280608  -4.6542214740
H  2.2525813128  3.6031010013  -3.6868473401
P  6.5747218427  1.2634829315  1.0943089043
C  8.3913589480  0.8660949088  0.8519400624
C  6.6150572989  2.4071725725  2.5980967574
C  5.7109393043  -0.2616415563  1.7339071982
H  7.5594560540  2.9340107281  2.4571110504
C  6.6508567425  1.6898352679  3.9450572652
C  5.5160085881  3.4613766713  2.6135739020
H  6.8917758880  2.4135793698  4.7240959574
H  5.6818840449  1.2641655683  4.1963768003
H  7.3872084810  0.8958260023  4.0046540970
H  5.5989520310  4.1327859686  1.7678551208
H  5.6061390243  4.0562348974  3.5238263255
H  4.5215224618  3.0211850598  2.6068343237
H  8.7564087422  1.8575728047  0.5751493496
C  8.6653510608  -0.0649459458  -0.3239311818
C  9.1503039937  0.4023127348  2.0855500123
H  8.0130417270  0.1347128765  -1.1694581634
H  8.5544872063  -1.1100107389  -0.0486486121
H  9.6932286896  0.0737104584  -0.6591573423
H  9.1636680707  1.1498777842  2.8727409979
H  10.1879524236  0.2012315643  1.8164026218
H  8.7418817209  -0.5215070333  2.4943557279
C  5.8927929409  -1.4990374281  0.8650949624
C  4.2366586264  0.0366330473  1.9849327159
H  6.1819138195  -0.4640002536  2.6960758769
H  5.6375421397  -1.3116124584  -0.1719175429
H  5.2360148726  -2.2899463572  1.2298181342
H  6.9087235917  -1.8786495213  0.9093197209
H  3.7165641094  0.2466553382  1.0565776542
H  4.0898078823  0.8817517564  2.6513516811
H  3.7659376970  -0.8308127856  2.4491192114
Cl  4.3657120582  0.6121398749  -1.4766234802
H  7.1965867692  1.9349433910  -1.6403174923
H  4.8757136048  3.2794757197  0.0534539297