19
charge=2, multiplicity=2, basis=def2-QZVPP, AUX_BASIS_CORR=rimp2-def2-QZVPPD, SCF_ALGORITHM=GDM, xc_grid=000099000590, mem_total=7500, num_basis=802, num_pairs=254217, num_threads=2
Cu  5.3747214774  -0.6244553372  -0.1678816776
O  3.3340683800  0.4137884117  0.5245879974
H  3.0367484531  1.3300550269  0.4452021563
H  2.5145737269  -0.0917587272  0.6114434804
O  6.4025129451  1.0948603424  -0.4575010480
H  7.3528054074  0.8958243436  -0.4818345318
H  6.2951381959  1.8812342630  0.0972570659
O  7.5459498418  -1.4974462207  -0.6994962287
H  8.1924603154  -1.9700087527  -0.1582210381
H  7.7813407714  -1.7337894582  -1.6069089238
O  4.4459227127  -2.4211305663  -0.1059258480
H  4.8228839750  -3.0846760642  -0.7045941790
H  4.4670605877  -2.8289067727  0.7740345115
O  5.5682417660  -0.7499679530  1.8416252884
H  6.4061428582  -0.6058615049  2.3051538464
H  4.9103134487  -0.1743491845  2.2645744105
O  4.9678849601  -0.6023896217  -2.1498138087
H  4.0355257924  -0.7506631870  -2.3719231567
H  5.2048743847  0.2351409627  -2.5779683164