17
charge=0, multiplicity=1, basis=def2-QZVPP, AUX_BASIS_CORR=rimp2-def2-QZVPPD, SCF_ALGORITHM=GDM, xc_grid=000099000590, mem_total=7500, num_basis=658, num_pairs=192605, num_threads=2
Si  1.4739717516  0.5066875988  0.1199320000
C  3.3555661338  0.4999023943  0.1235280002
C  0.8532015925  1.5660494744  -1.3058657413
C  0.8459800727  1.2137845040  1.7465274696
C  0.8409776086  -1.2533519426  -0.0850420834
H  1.2028056843  2.5949735852  -1.2195583904
H  -0.2361444356  1.5924721461  -1.3371160358
H  1.1986510589  1.1830190739  -2.2662353987
H  3.7569156451  1.5061668054  0.2445729613
H  3.7540646702  0.0985471220  -0.8083555279
H  3.7498690574  -0.1094091769  0.9369378358
H  1.1897702782  -1.6953052146  -1.0185010716
H  -0.2485948445  -1.2863751300  -0.0946430126
H  1.1802250633  -1.8956934818  0.7277570743
H  1.1966491118  2.2347031792  1.8984457510
H  1.1862684172  0.6212492361  2.5958894133
H  -0.2434868654  1.2340998265  1.7772067560