6
charge=0, multiplicity=1, basis=def2-QZVPP, AUX_BASIS_CORR=rimp2-def2-QZVPPD, SCF_ALGORITHM=GDM, xc_grid=000099000590, mem_total=3750, num_basis=234, num_pairs=27841, num_threads=1
C  1.5172645147  -0.9776792110  0.5217162913
C  0.7423987522  -1.4636307497  1.4784970315
H  2.5182858388  -1.3530575384  0.3512652706
H  1.1851810712  -0.1827709320  -0.1339007931
H  1.0744809584  -2.2585415098  2.1341115758
H  -0.2586211353  -1.0882500591  1.6489506239