39
charge=0, multiplicity=2, basis=def2-QZVPP, mem_total=60000, AUX_BASIS_CORR=rimp2-def2-QZVPPD, SCF_ALGORITHM=GDM, xc_grid=000099000590, num_basis=1746, num_pairs=950475, num_threads=16
C  -0.4661048933  0.4126508171  0.8218687486
C  -0.4087841337  1.6170507786  0.0828105278
C  -1.4433997329  1.5950035079  -0.8650052910
H  0.3207815358  2.3974646186  0.2057529129
C  -2.1721083943  0.3940744603  -0.6828283944
C  -1.5818593017  -0.3194216642  0.3656926678
H  -1.8647872065  -1.3043042144  0.6944001666
H  0.1920839046  0.1266089770  1.6244959086
H  -1.6574687059  2.3583030930  -1.5917136563
H  -2.9886121836  0.0564919256  -1.2971030742
C  1.8676985653  0.4301012240  -2.8280428854
C  2.0889585284  1.0017632374  -1.5596734130
C  2.2826114877  -0.0451544707  -0.6335044282
H  2.0975310081  2.0545195505  -1.3399963414
C  2.1873487981  -1.2625258256  -1.3330382417
C  1.9372845040  -0.9694430895  -2.6866291084
H  1.7751019297  -1.6829651665  -3.4748311058
H  1.7010624464  0.9655415232  -3.7447130630
H  2.4677000187  0.0670264992  0.4204906686
H  2.2535935385  -2.2460830487  -0.8979501723
Ti  0.0435588528  -0.2177960679  -1.4201005477
O  -0.7126458371  -1.8479232747  -1.8209919180
C  -0.4591905544  -2.9991440803  -2.5687199940
C  -0.5299753914  -2.7348230573  -4.0282783101
H  0.5176550915  -3.4245525714  -2.3008872522
H  -1.1992801837  -3.7653068681  -2.2857834858
H  -1.0490818559  -1.8277066104  -4.3074895311
H  0.8192571792  -5.0904583533  -3.7409516207
C  0.7071972370  -4.7545614267  -4.7624025857
C  0.0150666519  -3.5453214624  -5.0333726654
C  -0.1067178258  -3.1645046352  -6.3954613362
H  -0.6304006884  -2.2467510708  -6.6311234581
C  0.4276748748  -3.9321745883  -7.4049486133
H  0.3207088257  -3.6144986327  -8.4340352648
C  1.1046606972  -5.1151188385  -7.1108598328
H  1.5234444818  -5.7167929404  -7.9058584610
C  1.2356617019  -5.5151441384  -5.7832620461
H  1.7581949644  -6.4336142453  -5.5485755959
H  -0.4865599348  0.5447001291  -2.8321199067