13
charge=0, multiplicity=1, basis=def2-QZVPP, AUX_BASIS_CORR=rimp2-def2-QZVPPD, SCF_ALGORITHM=GDM, xc_grid=000099000590, mem_total=3750, num_basis=511, num_pairs=122707, num_threads=1
P  2.4073138674  0.3139739970  3.6880303395
C  3.7097316479  1.0659840820  2.6029004709
C  3.4936287125  -0.3382230090  5.0423835633
H  3.2379595553  1.6418795247  1.8091619393
H  4.2945762832  0.2778542529  2.1327288882
H  4.3867331305  1.7207090964  3.1531705098
H  2.8788421093  -0.6967321023  5.8656410057
H  4.1830443445  0.4156197853  5.4247478752
H  4.0721213483  -1.1828880403  4.6734059007
C  1.7907276707  1.8527322954  4.5196058179
H  1.2377008260  2.4591694947  3.8049874152
H  2.5981524065  2.4557737957  4.9369613423
H  1.1058080980  1.5859568275  5.3220749319