51
charge=0, multiplicity=2, basis=def2-QZVPP, mem_total=120000, AUX_BASIS_CORR=rimp2-def2-QZVPPD, SCF_ALGORITHM=GDM, xc_grid=000099000590, num_basis=2281, num_pairs=1588471, num_threads=32
C  2.2717376449  -2.6289037784  3.1541204927
C  1.5622785266  -2.5454155859  4.3740908657
C  2.0713137729  -3.5290154688  5.2517505196
H  0.7613077948  -1.8606677275  4.5881054125
C  3.1176805876  -4.1964547683  4.5820080108
C  3.2419796614  -3.6414335227  3.2966602020
H  3.6787054202  -5.0298389509  4.9638480705
C  -0.7543725375  -4.6952012892  1.9675062585
C  -0.9061506706  -3.5443761316  2.7585115549
C  -1.0873802886  -3.9573054128  4.0961271547
H  -0.8599623854  -2.5255322032  2.4125745485
C  -1.0407639768  -5.3665990798  4.1555191485
C  -0.8374554002  -5.8131674929  2.8231040706
H  1.7410867081  -3.7219597405  6.2581022831
H  3.9085718438  -3.9906545121  2.5275055633
H  2.1098373497  -2.0194427695  2.2809825136
H  -0.7202335130  -6.8345994745  2.5108934021
H  -1.2107756633  -3.3015039627  4.9389976561
H  -0.5693771171  -4.7231257294  0.9066695667
Ti  1.0838510287  -4.6352254966  3.4328503416
Cl  2.1533761734  -6.5548545851  2.6202264931
C  -1.2442348801  -6.2478719406  5.3699752153
C  -2.5486912096  -7.0283617443  5.1744956319
C  -1.3324054256  -5.4037680404  6.6374704465
H  -3.3806753600  -6.3395287209  5.0344830502
H  -2.7493168112  -7.6532415306  6.0385995217
H  -2.4949090212  -7.6654345387  4.2928227020
H  -2.1765063102  -4.7176196452  6.5906025864
H  -0.4257972591  -4.8165077568  6.7816247488
H  -1.4674965281  -6.0444730434  7.5017173258
C  -0.0379560351  -7.1927885959  5.4459802916
C  0.0106704346  -8.2059365924  6.5694277683
H  0.8709966767  -6.5875821835  5.5062450445
H  0.0567598776  -7.7359641092  4.5066267031
O  -0.8734058947  -8.3802368695  7.4014298017
N  1.1449993019  -8.9654735879  6.5985659454
C  2.3474849443  -8.7761199150  5.8201917559
H  1.1893463080  -9.5869708108  7.3907521792
C  3.3209713474  -7.7480223185  6.3515332876
C  4.5443458423  -7.5873539095  5.7034462382
H  4.7678680579  -8.1864949189  4.8292380400
C  5.4691605315  -6.6616598032  6.1567292565
H  6.4140771827  -6.5496994994  5.6418792173
C  5.1804352392  -5.8707137735  7.2624053451
H  5.8996432801  -5.1431480886  7.6138019111
C  3.9619384050  -6.0168933015  7.9055897665
H  3.7261612230  -5.4047795946  8.7660734066
C  3.0389241851  -6.9525742869  7.4541187293
H  2.0949534616  -7.0663784701  7.9693597750
H  2.0838376508  -8.5120776354  4.7971964619
H  2.8505858254  -9.7411070919  5.7537837176