37
charge=0, multiplicity=2, basis=def2-QZVPP, mem_total=60000, AUX_BASIS_CORR=rimp2-def2-QZVPPD, SCF_ALGORITHM=GDM, xc_grid=000099000590, num_basis=1666, num_pairs=870716, num_threads=16
Co  1.0367013887  -0.5239958341  0.1199552271
N  -0.7092197541  0.2329744876  0.0052417302
N  0.0405058483  -1.9593575271  0.8573754079
N  1.9986626372  0.9048845840  -0.6596573260
N  2.7603665239  -1.2768525974  0.3163116471
O  -0.9556361760  1.4532826001  -0.5084751680
O  1.3942462180  1.9232025430  -1.2364105521
O  2.9592632031  -2.4093932720  0.9454834322
O  0.5835589374  -3.1053725306  1.3025179789
C  -1.2458700939  -1.7833930698  0.9740213203
C  -1.6911553173  -0.4934887151  0.4628811268
C  3.2974805723  0.7214372650  -0.7214975268
C  3.7414817155  -0.5246616693  -0.1269064778
C  -3.1101645869  -0.0544480090  0.4792238911
H  -3.2159738375  0.8916553480  -0.0385275600
H  -3.4681487797  0.0750678710  1.5014425257
H  -3.7584825630  -0.7888112064  0.0020748646
C  -2.1364353834  -2.8038661967  1.5823062469
H  -1.7590904686  -3.0977834057  2.5608572072
H  -2.1596440557  -3.7107346834  0.9770709960
H  -3.1515654845  -2.4384735875  1.6944459970
C  4.2048793610  1.6825805458  -1.3987220417
C  5.1690804489  -0.9196109785  -0.0139455216
H  3.7309285893  2.6573831121  -1.4589089746
H  4.4284022286  1.3635240026  -2.4194586413
H  5.1537485675  1.7735928621  -0.8742280067
H  5.2357812355  -1.9660988246  0.2642084383
H  5.6919957226  -0.3350875644  0.7464073018
H  5.6974110276  -0.7676081674  -0.9541765562
H  0.0104169869  1.7565760276  -0.8359905651
H  1.6236943278  -2.9222271744  1.1658204586
O  0.7844962473  -1.1918865930  -2.1550418018
H  -0.1457587131  -1.4365244942  -2.2212726958
H  0.8161119074  -0.2895045185  -2.5017579782
O  1.3821708281  0.3141493079  2.3059592623
H  1.9617483258  1.0506913766  2.0759190618
H  1.9868183648  -0.3790963141  2.6014692722