31
charge=0, multiplicity=1, basis=def2-QZVPP, AUX_BASIS_CORR=rimp2-def2-QZVPPD, SCF_ALGORITHM=GDM, xc_grid=000099000590, mem_total=30000, num_basis=1213, num_pairs=560245, num_threads=8
P  5.6358466604  4.0557710624  -3.0632285116
C  6.8826509198  5.0295171112  -4.1085804350
C  4.4849808485  3.2867212130  -4.3307945738
C  4.6500664419  5.4633409126  -2.2768382600
C  8.1935319311  4.2529723000  -4.1882409577
H  7.0687383560  5.9147572435  -3.4941650110
C  6.4470785501  5.5048893011  -5.4872106712
H  6.2868510482  4.6739154307  -6.1711506248
H  7.2231247783  6.1331911411  -5.9286235727
H  5.5319052470  6.0898133627  -5.4615511038
H  8.5504340083  3.9728757832  -3.1993085149
H  8.9673792944  4.8512133277  -4.6731656908
H  8.0818161149  3.3356402498  -4.7649191068
H  5.4487045916  6.1337738334  -1.9452088163
C  3.9417942657  4.9705098188  -1.0187223652
C  3.7134901224  6.2638174283  -3.1686196389
H  4.2325730931  6.7262471294  -4.0036134368
H  3.2399564262  7.0654172829  -2.5980482147
H  2.9142509471  5.6475855862  -3.5758113394
H  4.6277801020  4.4416130845  -0.3600430009
H  3.1229073491  4.2927074495  -1.2500663064
H  3.5201072920  5.8115420268  -0.4653244075
C  5.2363739919  2.1862511431  -5.0719802913
H  4.1656239695  4.0440790674  -5.0486384295
C  3.2531454291  2.7003949648  -3.6538639509
H  6.0984144392  2.5591448361  -5.6185644034
H  4.5786429964  1.6976041533  -5.7927299198
H  5.5921242438  1.4258978036  -4.3770595077
H  3.5327548137  2.0168085483  -2.8520808279
H  2.6597826329  2.1368404444  -4.3757790878
H  2.6071090952  3.4635969602  -3.2294090215