22
charge=0, multiplicity=1, basis=def2-QZVPP, AUX_BASIS_CORR=rimp2-def2-QZVPPD, SCF_ALGORITHM=GDM, xc_grid=000099000590, mem_total=15000, num_basis=849, num_pairs=302888, num_threads=4
N  1.5243426454  2.2871920774  -2.1257706818
C  2.9804570950  2.3151024327  -2.2228985435
C  1.0484444180  2.8805463250  -0.8800206859
C  0.9893628589  0.9444485091  -2.3290205808
H  1.6122742394  0.4416351536  -3.0666216586
C  -0.4402016226  0.9414347991  -2.8345950412
H  1.0691263332  0.3423379199  -1.4073876609
H  -0.5067710828  1.4793345496  -3.7783290300
H  -1.1281860577  1.4128630408  -2.1345891417
H  -0.7861521455  -0.0801819553  -2.9921594880
C  1.0561926343  4.3967615663  -0.8985403985
H  1.6262348005  2.5074619732  -0.0165905253
H  0.0249366951  2.5470928159  -0.7184374884
H  2.0561264415  4.8038967689  -1.0396526067
H  0.6746839444  4.7905514696  0.0435517376
H  0.4298293921  4.7674777939  -1.7076749993
C  3.4840212337  2.2933289317  -3.6529976134
H  3.4324551237  1.4888439271  -1.6473106477
H  3.3315299426  3.2316034666  -1.7523032742
H  3.1864488418  1.3899960158  -4.1831444541
H  4.5729389207  2.3383928932  -3.6736743306
H  3.0914153481  3.1459095259  -4.2037928873