86
charge=1, multiplicity=2, basis=def2-QZVPP, mem_total=700000, AUX_BASIS_CORR=rimp2-def2-QZVPPD, SCF_ALGORITHM=GDM, xc_grid=000099000590, num_basis=3769, num_pairs=3120221, num_threads=128
Os  -3.9453543996  1.8737510446  -2.2793247773
C  -4.5480984184  2.8272987163  -3.9188948169
C  -4.0251644414  2.5065711294  -5.1339116015
H  -5.3151087732  3.5937636844  -3.8374475014
C  -3.0339543572  1.3869180745  -5.1290054676
O  -1.8335839611  1.6812416888  -5.8726450640
H  -1.3364185165  2.3242327052  -5.3507005711
C  -2.7609845733  0.9880440771  -3.6836524568
H  -3.4385071952  0.5143283782  -5.6495057717
C  -1.7999745778  0.0491787565  -3.4509430785
Cl  -5.5994496775  3.1688053853  -1.0077845334
Cl  -2.9426556011  0.5085782353  -0.4829502117
P  -2.4334837797  3.5996084415  -1.6607115862
P  -5.6213899110  0.2017134240  -2.4367673465
C  -2.3785109904  3.8979719297  0.1364947294
H  -2.0521538058  2.9900345850  0.6334489041
H  -3.3809298182  4.1313158011  0.4802103623
H  -1.7031705575  4.7175070251  0.3732459505
C  -0.6707817829  3.3706762983  -2.0932560292
H  -0.5548049574  3.3970384332  -3.1740152344
H  -0.3459672019  2.4006242022  -1.7275927610
H  -0.0496297407  4.1486046956  -1.6547412064
C  -2.8343292364  5.2412524327  -2.3591034610
H  -3.8530723346  5.4884857274  -2.0736347690
H  -2.7788913442  5.1970657871  -3.4443756859
H  -2.1588233319  6.0119827339  -1.9943229249
C  -6.3512470056  -0.2473368672  -0.8292198934
H  -6.7662139405  0.6453114357  -0.3725940680
H  -5.5653959475  -0.6260258395  -0.1834674185
H  -7.1280104997  -0.9991878047  -0.9523553427
C  -7.0654117358  0.6724364236  -3.4552397693
H  -6.7385633071  0.8682611914  -4.4739355911
H  -7.4852823409  1.5860435834  -3.0432139289
H  -7.8269202152  -0.1044046409  -3.4634674653
C  -5.0984205382  -1.4028184181  -3.1348581586
H  -4.2181694166  -1.7435587923  -2.5964359079
H  -4.8334494604  -1.2735973001  -4.1801175053
H  -5.8866405656  -2.1481889144  -3.0532615973
P  -4.5069873007  3.2177662989  -6.6551436451
C  -6.0302879944  4.1727680331  -6.4647651957
C  -4.7908833911  1.9347390649  -7.9054402289
H  -5.8726708388  4.9938243911  -5.7716071154
H  -6.8227878898  3.5372243660  -6.0816407613
H  -6.3281166369  4.5805795330  -7.4272503544
H  -3.8795169873  1.3591188924  -8.0421197571
H  -5.0756210103  2.3812545799  -8.8547830947
H  -5.5795005244  1.2672887855  -7.5697663650
C  -3.2749070251  4.3408882047  -7.3775401195
H  -3.0862323708  5.1586250551  -6.6872201254
H  -3.6260533256  4.7447830186  -8.3246752457
H  -2.3527598622  3.7903544418  -7.5352862760
P  -0.8628385217  -0.8986464027  -4.5970250481
H  -1.6398976120  -0.2599387809  -2.4292650743
C  -1.7882727177  -1.4158151842  -6.0688807293
C  -2.8398770859  -2.3162051140  -5.8926195880
H  -3.0443785938  -2.7227936743  -4.9126764281
C  -3.6157597919  -2.6971534204  -6.9746983270
H  -4.4260118207  -3.3988302296  -6.8329900949
C  -3.3434141829  -2.1898211171  -8.2390072161
H  -3.9431111593  -2.4964858412  -9.0851746702
C  -2.2923812193  -1.3010006040  -8.4171480505
H  -2.0697565328  -0.9152035709  -9.4026963779
C  -1.5151168895  -0.9103217076  -7.3366527664
H  -0.7136172036  -0.2021440725  -7.4750465928
C  -0.3683052380  -2.4225153128  -3.7427625972
C  -0.1971216845  -3.6069637296  -4.4586623690
H  -0.4311018277  -3.6483976420  -5.5127896701
C  0.2613647345  -4.7465746531  -3.8169970798
H  0.3841970579  -5.6627573461  -4.3775882198
C  0.5577113402  -4.7125976931  -2.4622264320
H  0.9133521592  -5.6033719770  -1.9631117892
C  0.4012033283  -3.5322293062  -1.7496655347
H  0.6323760203  -3.4992891369  -0.6943477260
C  -0.0546575805  -2.3878433855  -2.3837736218
H  -0.1622274089  -1.4791963890  -1.8096066443
C  0.7029392621  -0.1466226555  -5.1235046660
C  1.1252476864  1.0328353051  -4.5216392692
H  0.4952606233  1.5045199658  -3.7824951448
C  2.3571049060  1.5779579021  -4.8503588432
H  2.6849736885  2.4919720076  -4.3745564392
C  3.1700713323  0.9450761633  -5.7796667784
H  4.1317240006  1.3681500534  -6.0353885978
C  2.7564351897  -0.2426452512  -6.3695902223
H  3.3953524768  -0.7444175919  -7.0828843925
C  1.5302687906  -0.7956754967  -6.0379488313
H  1.2255278889  -1.7303662255  -6.4884123275