80
charge=1, multiplicity=4, basis=def2-QZVPP, mem_total=700000, AUX_BASIS_CORR=rimp2-def2-QZVPPD, SCF_ALGORITHM=GDM, xc_grid=000099000590, num_basis=3367, num_pairs=2859380, num_threads=128
N  1.7408547323  0.9502226927  1.7844976689
C  0.7757584926  1.7131396546  1.2487407315
C  0.6229754916  3.0602491773  1.5479014157
C  1.4234434051  3.8160263442  2.3993524374
C  -0.1629554549  1.0945675927  0.2588396596
H  0.3712249817  0.6587929037  -0.5823355690
H  -0.8658029582  1.8275751329  -0.1203338793
H  -0.7253377257  0.2854607375  0.7209105147
C  1.2001938163  5.2930071681  2.4782847929
H  2.1428398088  5.8308598877  2.5367085253
H  0.6315334648  5.5518048391  3.3697705233
H  0.6437824048  5.6471360354  1.6170865058
N  2.3884463994  3.2557809944  3.1270647399
C  1.9714221365  -0.3561147670  1.2480463299
C  1.3423728223  -1.4813147510  1.7949398305
C  0.3284164272  -1.3876523813  2.8926153927
C  1.6198640183  -2.7269156919  1.2319830749
H  1.1378781030  -3.6051690177  1.6417906019
C  2.4675926523  -2.8504126957  0.1475257742
H  2.6610495968  -3.8241414565  -0.2805526824
C  3.0615263004  -1.7219638680  -0.3993267812
H  3.7107903779  -1.8183408167  -1.2596757790
C  2.8270985777  -0.4629910839  0.1362683653
C  3.4161701252  0.7511848748  -0.5110580958
C  3.1605112711  4.0027906275  4.0628584386
C  4.4727851000  4.3760203073  3.7224236300
C  5.0121170439  4.2185357222  2.3334289875
C  5.2543794312  4.9994225741  4.6908435967
H  6.2680203688  5.2879435248  4.4448139801
C  4.7449050039  5.2738580544  5.9472945434
H  5.3659794382  5.7570363660  6.6884083309
C  3.4328027973  4.9473422436  6.2503844260
H  3.0295685095  5.1952356344  7.2234590215
C  2.6144896459  4.3150953998  5.3221921501
C  1.1808642234  4.0492458874  5.6578461617
Cr  2.9348585272  1.4061137713  3.2259293115
H  0.5989360062  -2.0176769382  3.7391518961
H  -0.6391348642  -1.7449505700  2.5404228500
H  0.1991951418  -0.3754811060  3.2559560241
H  3.6921892127  1.5141682827  0.2115036661
H  2.7010362167  1.2209826885  -1.1880581381
H  4.2930455645  0.4959422931  -1.0996452856
H  5.0685265268  5.1903893604  1.8420561305
H  4.3835516746  3.5907880495  1.7090797607
H  6.0226422281  3.8149552650  2.3393501048
H  0.7255761220  3.3174407920  5.0007410981
H  0.5981658630  4.9676157309  5.5776424610
H  1.0706098022  3.7025931485  6.6801660131
H  -0.1620910608  3.5852918766  1.0290513607
C  2.2529346435  0.6528027789  4.9615872582
Si  3.3391808349  0.6758012012  6.5200229600
H  2.0082352974  -0.3859359714  4.7328782385
H  1.3029211032  1.1579275500  5.1399405494
C  3.5591505418  -1.1022601182  7.1030576712
C  2.5020787170  1.6106135600  7.9196128057
C  5.0310097377  1.4480793190  6.2422580823
H  5.6726713551  0.8307696412  5.6197393773
H  5.5365728443  1.5697451464  7.2000974985
H  4.9665751370  2.4350157073  5.7895121680
H  2.5977614113  -1.5505840831  7.3529009544
H  4.1714742554  -1.1309400728  8.0045174602
H  4.0386063846  -1.7465352169  6.3689954596
H  1.4387750187  1.3880655232  7.9922567642
H  2.6234121537  2.6858310829  7.8243335199
H  2.9591222548  1.3212128537  8.8661201065
O  4.5931476867  0.1445806646  3.0490435688
C  5.6835705234  0.6162119220  2.2184352251
C  6.9647875490  0.8470486867  2.9721974342
H  5.3183612908  1.5485783372  1.7963518340
H  5.8112441608  -0.0804395680  1.3933304170
H  6.8304105516  1.5697121729  3.7726074011
H  7.7119725732  1.2376374858  2.2828774667
H  7.3668888479  -0.0695461891  3.3970444362
C  4.7603276853  -1.1834650019  3.6271301782
H  3.7812550731  -1.4174730550  4.0261750624
H  5.4527966825  -1.0987679838  4.4621898939
C  5.1945892064  -2.2405273382  2.6505851691
H  4.5399444351  -2.2789562068  1.7859876007
H  5.1360537215  -3.2042322701  3.1541029106
H  6.2222405323  -2.1180210494  2.3174659108