22
charge=0, multiplicity=2, basis=def2-QZVPP, AUX_BASIS_CORR=rimp2-def2-QZVPPD, SCF_ALGORITHM=GDM, xc_grid=000099000590, mem_total=15000, num_basis=1033, num_pairs=450597, num_threads=4
Ti  -3.0897366902  3.1914921917  1.8561741753
Cl  -3.8086478566  2.3172852664  -0.1619576851
C  -4.6085576379  2.8750545033  3.6156079619
C  -4.7209977947  1.7363434842  2.7896377597
C  -3.4952306888  1.0482901605  2.8152705322
H  -5.5688445000  1.4796044302  2.1796748277
C  -2.6122679600  1.7511210941  3.6593378235
C  -3.3094025818  2.8684719345  4.1711628826
H  -2.9149268829  3.6008316672  4.8526854034
H  -5.3791942344  3.6028007851  3.8065999027
H  -3.2534829516  0.1789399526  2.2283286367
H  -1.5929783357  1.4816664812  3.8798831830
C  -2.9261475011  5.4380233742  1.1313357162
C  -2.6031029922  5.4293918804  2.5012229995
C  -1.4238269679  4.6729695664  2.6663594866
H  -3.1732781867  5.8941840388  3.2879701998
C  -1.0213465507  4.1984654434  1.4013734733
C  -1.9469230488  4.6852654498  0.4508792122
H  -1.9428918561  4.4666018095  -0.6009022096
H  -3.7888843598  5.9027185365  0.6841810294
H  -0.9304916222  4.4650803917  3.6000067376
H  -0.1603878002  3.5848655581  1.1955349516