17
charge=0, multiplicity=1, basis=def2-QZVPP, AUX_BASIS_CORR=rimp2-def2-QZVPPD, SCF_ALGORITHM=GDM, xc_grid=000099000590, mem_total=7500, num_basis=753, num_pairs=239547, num_threads=2
O  0.7811783982  -1.5643293539  -3.5161015125
C  0.0304829161  -2.3722574969  -2.6152057203
C  0.9396263693  -2.9851496581  -3.5888836878
H  0.3211030973  -2.3042069151  -1.5712474598
H  -1.0375593050  -2.4114592234  -2.8043096937
H  1.8964177160  -3.3393312567  -3.2139506067
H  1.5504685178  -5.4714405137  -4.3890268891
C  0.8520031000  -4.9847221457  -5.0590848789
C  0.4455447306  -3.6784519481  -4.8003099794
C  -0.4377591401  -3.0575252650  -5.6790879811
H  -0.7289398012  -2.0326194329  -5.4945394889
C  -0.9124556431  -3.7364395948  -6.7899469554
H  -1.5935848445  -3.2415881060  -7.4697085026
C  -0.5126859908  -5.0430700102  -7.0365362260
H  -0.8830913423  -5.5704093957  -7.9056091619
C  0.3731309703  -5.6651217675  -6.1682123136
H  0.6969602515  -6.6799179162  -6.3581489422