23
charge=-1, multiplicity=2, basis=def2-QZVPP, AUX_BASIS_CORR=rimp2-def2-QZVPPD, SCF_ALGORITHM=GDM, xc_grid=000099000590, mem_total=30000, num_basis=1103, num_pairs=507381, num_threads=8
C  -0.4649553766  -1.0809343225  -0.6683093919
C  0.6416449143  -0.2868311751  -1.0383393446
C  1.1002926725  0.3893731517  0.0971201760
H  0.9913705713  -0.1323288459  -2.0422912366
C  0.2868920345  0.0229449307  1.1932693341
C  -0.6655306298  -0.9067258626  0.7203826171
H  -1.4263329845  -1.3842180244  1.3123320198
H  -1.0636491630  -1.6810175094  -1.3330203132
H  1.8601995899  1.1486008551  0.1105124183
H  0.3610470141  0.4138695642  2.1940467021
C  -3.5159871572  1.2011327422  -0.8479892867
C  -3.1553616495  2.4698308779  -0.3397623827
C  -2.8389111509  2.3199329393  1.0280727609
H  -3.0398383012  3.3688427316  -0.9174123692
C  -2.9739501864  0.9642989187  1.3560371394
C  -3.3950757435  0.2713030198  0.1940626879
H  -3.5458442506  -0.7922286010  0.1086044139
H  -3.7393663354  0.9790050515  -1.8756269062
H  -2.4573809236  3.0934597064  1.6692717146
H  -2.7450220366  0.5215103472  2.3115103110
Ti  -1.1828080982  1.1621905484  -0.2878336754
Cl  0.0098154872  3.2895985365  0.2161866141
Cl  -1.0558082967  1.6763304198  -2.7211640030