3
charge=0, multiplicity=1, basis=def2-QZVPP, AUX_BASIS_CORR=rimp2-def2-QZVPPD, SCF_ALGORITHM=GDM, xc_grid=000099000590, mem_total=3750, num_basis=117, num_pairs=7123, num_threads=1
O  -1.4676672914  0.0434208530  0.7222481432
H  -2.0564026295  0.2496232255  1.4557879439
H  -2.0298300791  -0.4352840786  0.1041639129