50
charge=0, multiplicity=2, basis=def2-QZVPP, mem_total=120000, AUX_BASIS_CORR=rimp2-def2-QZVPPD, SCF_ALGORITHM=GDM, xc_grid=000099000590, num_basis=2103, num_pairs=1471694, num_threads=32
C  -0.5895527936  -0.7858655003  -4.7568839455
C  0.7586586099  -0.3505752608  -4.8767556775
C  1.5998947856  -1.4649149543  -4.6204184081
C  1.2077543179  1.0079616279  -5.2924713883
C  0.7789671124  -2.5796770947  -4.3266236109
C  -0.5803287351  -2.1630781889  -4.4017208107
C  -1.7752474687  -3.0421852275  -4.2584574651
C  3.0876722673  -1.4520377775  -4.6566615466
C  1.2402959832  -3.9600370467  -4.0143328322
C  -1.3298210542  -0.0324879342  -1.2292074539
C  -0.4109384347  1.0085054122  -1.5278240141
C  0.8800667778  0.5932999433  -1.1426426677
C  -0.7642945292  2.3497548010  -2.0664883823
C  0.7841624351  -0.7562836487  -0.6245588521
C  -0.6210581659  -1.1069776663  -0.6562589259
C  2.1330398249  1.3906507013  -1.2572205784
C  1.7539958925  -1.7302018943  -1.0507500835
Ti  0.3844919542  -0.9849872471  -2.6545148946
C  -1.8006139298  0.0282726212  -5.0539735776
C  -2.8057008522  0.0348652927  -1.4042925322
C  -1.2045609331  -2.3940531989  -0.1849056966
H  2.2861201012  2.0173564383  -0.3741294628
H  2.1205532715  2.0520203822  -2.1221033008
H  3.0082760642  0.7510553936  -1.3464408967
H  -1.5261726610  -2.3242246691  0.8580320362
H  -0.4824108191  -3.2058363442  -0.2382886258
H  -2.0734208267  -2.6886089147  -0.7712826326
H  -3.0911726055  0.7112538617  -2.2059130242
H  -3.2920080685  0.3938186203  -0.4940735110
H  -3.2315522130  -0.9415567969  -1.6272964444
H  -1.6529610879  2.3170366432  -2.6922445827
H  0.0427888488  2.7722016519  -2.6614592507
H  -0.9669500092  3.0555509238  -1.2575740629
H  -1.6034168638  -3.8454810006  -3.5444880313
H  -2.0448150926  -3.5102211282  -5.2094049366
H  -2.6466475481  -2.4864894374  -3.9180466060
H  2.2482401496  -3.9652307503  -3.6079147453
H  1.2418713716  -4.5894591694  -4.9078738726
H  0.5949407025  -4.4448995050  -3.2836070886
H  3.4899308216  -0.4908875885  -4.3415612633
H  3.4618439172  -1.6408552361  -5.6660262755
H  3.5128319207  -2.2106524023  -4.0044161312
H  2.1752642575  1.2614784204  -4.8636927462
H  0.5041374856  1.7784189734  -4.9846505147
H  1.3075840176  1.0809432693  -6.3785334885
H  -1.6352881138  1.0863087018  -4.8642203150
H  -2.6559198530  -0.2816831082  -4.4580017672
H  -2.0910411533  -0.0671124263  -6.1032040468
H  1.6294065368  -2.7580031068  -0.7324250355
H  2.7944043850  -1.4349294553  -1.1051960335