66
charge=0, multiplicity=2, basis=def2-QZVPP, mem_total=240000, AUX_BASIS_CORR=rimp2-def2-QZVPPD, SCF_ALGORITHM=GDM, xc_grid=000099000590, num_basis=2771, num_pairs=2241869, num_threads=64
C  -1.2349885645  -1.0056245155  -4.7899578518
C  -0.2705741372  0.0220426894  -4.8331576542
C  1.0116916496  -0.5700232761  -4.7092871248
C  -0.5729542371  1.4543727873  -5.1047038893
C  0.8429633600  -1.9689969014  -4.5851216908
C  -0.5581035062  -2.2585164530  -4.6471045302
Si  -1.4653897175  -3.8853239178  -4.4538312129
C  2.3174072788  0.1291241150  -4.8499152339
C  1.9632720652  -2.9509691646  -4.4975414317
C  -0.7628759083  0.5766437370  -1.1694530912
C  0.5432435969  0.9340410316  -1.5889649893
C  1.4330713570  -0.0991119394  -1.2013203539
C  0.9565041154  2.2575799040  -2.1296622359
C  0.6852095948  -1.0792605979  -0.5162627858
C  -0.6862766711  -0.6766568799  -0.4818667981
C  2.9167934875  -0.0827241678  -1.3257978063
C  1.2863112115  -2.3005310955  0.0935047870
Ti  -0.2085888454  -1.1197019838  -2.6929351266
C  -2.6983317593  -0.7816928601  -4.9596402709
C  -1.9711439788  1.4463089624  -1.3028739410
Si  -2.0588034797  -1.9578962143  -0.4285797782
H  3.2572807063  0.6323884976  -2.0683848764
H  3.3161031401  -1.0582170285  -1.6002178141
H  3.3819057809  0.1945927883  -0.3768175786
H  -1.7233404205  2.3963207351  -1.7692393606
H  -2.3991647988  1.6698141914  -0.3252703532
H  -2.7607384062  0.9924360319  -1.8958577435
H  0.1777637940  2.7319207226  -2.7176034738
H  1.8445865718  2.1922038932  -2.7515596889
H  1.1956082860  2.9372932954  -1.3082387509
H  2.8871996865  -2.4707113220  -4.1842492006
H  2.1564870947  -3.4201748237  -5.4654560118
H  1.7568238590  -3.7502532123  -3.7931376587
H  2.2469764910  1.1862836277  -4.6131810080
H  2.6776790698  0.0553812038  -5.8784421080
H  3.0862462458  -0.2997167412  -4.2133805884
H  0.2957977761  2.0901198136  -4.9693774214
H  -1.3665459546  1.8371006117  -4.4645656122
H  -0.9085748418  1.5833023880  -6.1357558126
H  -3.0015957663  0.1872879313  -4.5681575355
H  -3.2931528426  -1.5366506430  -4.4559515667
H  -2.9776129720  -0.8016870463  -6.0162923118
H  2.1117170738  -2.6854944674  -0.5037138771
H  0.5662122121  -3.1034248480  0.2117425706
H  1.6849816765  -2.0787508429  1.0862964864
C  -0.3198949138  -5.3622821103  -4.2259745701
C  -2.5369409408  -4.2444861165  -5.9626676805
C  -2.3990835929  -3.6195273648  -2.8469220214
C  -3.7870518711  -1.2601761856  -0.6991935812
C  -2.1539744341  -2.8937000936  1.2112372473
C  -1.4721779036  -2.7972969854  -1.9620908484
H  -2.7049255042  -4.5671817249  -2.3868089103
H  -3.3276907137  -3.0753668565  -3.0271693210
H  -4.0470129880  -0.4923253188  0.0278910397
H  -4.5124097083  -2.0672959015  -0.5900860182
H  -3.9177165587  -0.8416280849  -1.6943259843
H  -2.4576186870  -2.2239810462  2.0180584543
H  -1.2110887144  -3.3494346951  1.5052269980
H  -2.8976423872  -3.6895026633  1.1500683310
H  -1.9260815202  -4.3703382644  -6.8570079689
H  -3.2496448976  -3.4469202448  -6.1629838970
H  -3.1045250403  -5.1651808967  -5.8226082337
H  0.3992342610  -5.4778583091  -5.0346852723
H  -0.9256636950  -6.2689206175  -4.1967923911
H  0.2304840182  -5.3151808329  -3.2877771428
H  -0.5510835815  -3.3595747030  -1.7232049238