61
charge=0, multiplicity=2, basis=def2-QZVPP, mem_total=240000, AUX_BASIS_CORR=rimp2-def2-QZVPPD, SCF_ALGORITHM=GDM, xc_grid=000099000590, num_basis=2750, num_pairs=2001918, num_threads=64
Si  -0.0095810046  0.3000952578  0.2615584614
C  1.8530392700  0.0129139761  0.0741757481
C  2.6223484167  -0.9002543703  0.7958192691
H  2.1566275152  -1.5145342029  1.5571023122
C  3.9758507794  -1.0599358245  0.5372564174
H  4.5568681247  -1.7763418267  1.1040413514
C  4.5853045826  -0.3019271357  -0.4542271854
H  5.6406315538  -0.4247861124  -0.6609034396
C  3.8375842485  0.6084531736  -1.1862907524
H  4.3238000992  1.1915285368  -1.9581479745
C  2.4782006024  0.7654944034  -0.9287962018
P  1.4193541599  1.9815810653  -1.8250670531
C  -0.5265630333  0.8769759953  1.9881886590
C  0.0660748937  0.5761388907  3.2120109143
H  0.9737256035  -0.0146814771  3.2412198441
C  -0.4749587507  1.0453677331  4.4024445505
H  0.0084749045  0.8203775895  5.3447600269
C  -1.6363257860  1.8048642698  4.3834738864
H  -2.0621313303  2.1703591341  5.3090745853
C  -2.2492903650  2.1041608455  3.1735756504
H  -3.1535155868  2.6998857669  3.1735888198
C  -1.6899609211  1.6614642981  1.9799266137
P  -2.4034091241  2.0474863291  0.3162846739
C  -0.8843109619  -1.3749708933  0.0228545830
C  -0.9290412748  -2.4172298580  0.9473466213
H  -0.4228775002  -2.3124075217  1.9000179335
C  -1.6436294289  -3.5774686527  0.6846251697
H  -1.6797183042  -4.3721251465  1.4191241236
C  -2.3209491520  -3.7162901106  -0.5204126198
H  -2.8830363267  -4.6180322991  -0.7270816957
C  -2.2853391565  -2.6924778918  -1.4561216202
H  -2.8191638531  -2.8108135491  -2.3908577337
C  -1.5791402092  -1.5239466018  -1.1839795769
P  -1.4625111069  -0.1005940173  -2.3503797217
Ru  -0.8142585860  1.7999049126  -1.3345260230
C  -3.9560001580  1.0511345866  0.3478872652
C  -3.0752796887  3.7513669622  0.5028420557
C  -3.0822597964  -0.0857423896  -3.2266950100
C  -0.3788849083  -0.8173816217  -3.6598827180
C  2.1095865871  3.5921128793  -1.2435765330
C  2.0670513863  1.9510615511  -3.5527021494
H  -3.8205592918  3.8329802928  1.2922550390
H  -3.5285537204  4.0445224153  -0.4409720636
H  -2.2536404581  4.4309533739  0.7107240655
H  -4.5339322429  1.2344864031  1.2521456749
H  -4.5621248773  1.3043544734  -0.5190734132
H  -3.6979797999  -0.0033781005  0.3001809051
H  0.5977353277  -1.0164256697  -3.2266817790
H  -0.2664807510  -0.0978678848  -4.4673382421
H  -0.7833032683  -1.7470951904  -4.0584939039
H  -3.8788608672  0.0849707368  -2.5098265156
H  -3.2813495739  -1.0090089475  -3.7687376913
H  -3.0765649461  0.7402567041  -3.9336817919
H  3.1848313197  3.6600750556  -1.4081820682
H  1.9013405140  3.6923149653  -0.1822616476
H  1.6103559456  4.4017918109  -1.7709207590
H  3.1128821349  2.2461130426  -3.6182428378
H  1.4725938179  2.6424318816  -4.1454152087
H  1.9532896879  0.9561854041  -3.9708555171
N  -1.4990264875  3.1507433687  -2.6272061458
N  -1.8936388774  3.9001592104  -3.3677676273