59
charge=0, multiplicity=4, basis=def2-QZVPP, mem_total=240000, AUX_BASIS_CORR=rimp2-def2-QZVPPD, SCF_ALGORITHM=GDM, xc_grid=000099000590, num_basis=2574, num_pairs=1803708, num_threads=64
C  -2.1568110858  0.4401654863  -0.6237851773
C  -0.7463887083  0.5764077402  -0.6612476786
C  -0.1902958873  -0.3910537044  0.2049393458
H  -0.1960982341  1.2954756357  -1.2453392061
C  -1.2514404087  -1.1257245497  0.7817972767
C  -2.4649899303  -0.6117262944  0.2672739356
H  -3.4546040031  -0.9581189161  0.5155091586
H  -2.8663288194  1.0317744928  -1.1781725620
H  0.8548273400  -0.5509824250  0.4045718392
H  -1.1411013682  -1.9159730831  1.5042489628
V  -1.4449235423  1.0385519281  1.4594611423
P  -1.6462572207  3.4558056136  1.4124999963
Si  0.3924440973  1.1110070204  3.1769664107
P  -3.0577066515  1.2482422896  3.2348713407
C  -3.0272956811  3.9374219117  2.5680190801
C  -3.0467254728  3.0215256141  3.7801389409
H  -3.9593283660  3.8471668186  2.0097829416
H  -2.9290957640  4.9838757339  2.8596459055
H  -3.9026584030  3.2277192368  4.4247206591
H  -2.1454003531  3.1536633216  4.3776267998
C  -4.8330657082  0.9902840982  2.7898365436
H  -4.9989634722  -0.0646354316  2.5846820641
H  -5.0676213197  1.5428532681  1.8836079368
H  -5.5066199359  1.3032056534  3.5867841771
C  -2.9714836105  0.3549232714  4.8386961305
H  -2.0016593719  0.5330884170  5.2929493647
H  -3.0797216922  -0.7128481798  4.6654280104
H  -3.7557034201  0.6823406965  5.5199168830
C  -2.1783905728  4.2504915848  -0.1631370158
H  -3.0597971146  3.7423868223  -0.5456695664
H  -1.3849487611  4.1507380532  -0.8998889200
H  -2.4031235107  5.3079851843  -0.0304333446
C  -0.3042435582  4.5957452659  1.9428078733
H  -0.0134498866  4.3673865863  2.9635038868
H  -0.6265900540  5.6341951443  1.8785261938
H  0.5743837535  4.4464699286  1.3229415945
C  1.8928870174  2.1806698290  2.7088933887
C  2.5875130345  2.9399224381  3.6538473505
H  2.2916507309  2.8892163793  4.6950675908
C  3.6463932136  3.7615220839  3.2899252696
H  4.1631034326  4.3434836754  4.0431840460
C  4.0490508341  3.8317658161  1.9634208353
H  4.8763183663  4.4686206343  1.6768982588
C  3.3843394153  3.0747576900  1.0074338324
H  3.6938548872  3.1197804183  -0.0296513480
C  2.3174354704  2.2693950068  1.3796974059
H  1.7895713524  1.7088280450  0.6178509036
C  1.0940837819  -0.6321574308  3.4818236483
C  2.3696086086  -1.0083438407  3.0538880068
H  3.0248674634  -0.2663718299  2.6146442018
C  2.8246723803  -2.3142647775  3.1882975901
H  3.8196048707  -2.5745453591  2.8483976843
C  2.0150545041  -3.2808106067  3.7661257258
H  2.3681511160  -4.2986035250  3.8733125349
C  0.7434627983  -2.9296846675  4.2022642904
H  0.1027903006  -3.6747016139  4.6586013256
C  0.2936724623  -1.6266777150  4.0540952335
H  -0.7071670467  -1.3792433444  4.3871012361
H  0.0820977032  1.6160024604  4.5720570649