52
charge=1, multiplicity=2, basis=def2-QZVPP, mem_total=120000, AUX_BASIS_CORR=rimp2-def2-QZVPPD, SCF_ALGORITHM=GDM, xc_grid=000099000590, num_basis=2223, num_pairs=1414281, num_threads=32
Os  -4.6229898425  2.0936154463  -2.2743693770
C  -5.7759019518  2.5379055092  -3.9021285157
C  -5.3114659974  2.4674446002  -5.1767139097
H  -6.8040782587  2.8380021768  -3.7218719485
C  -3.8829621886  2.0168341911  -5.3163742458
O  -3.1299246128  2.9899554858  -6.0470941370
H  -2.2329049512  2.6534390570  -6.1714201531
C  -3.4409904805  1.8433428899  -3.9139896391
H  -3.8205571865  1.0456334618  -5.8267567563
C  -2.7025938947  1.6573255986  -2.8907082522
Cl  -6.6381831593  2.6357680156  -1.0458816339
Cl  -3.5674172661  1.5756358177  -0.0528508565
P  -4.1165825066  4.4334201820  -1.8942324429
P  -5.3645202317  -0.2129393186  -2.1453283456
C  -4.1156376696  4.9253829646  -0.1477582353
H  -3.3684830048  4.3476709852  0.3853746922
H  -5.0852001677  4.6969035924  0.2827376514
H  -3.9084482411  5.9895789879  -0.0579533900
C  -2.4804576857  4.9318805384  -2.5328282304
H  -2.4241489400  4.7274219644  -3.5986636803
H  -1.7109363164  4.3566751344  -2.0252351231
H  -2.3037715758  5.9906057254  -2.3581774499
C  -5.2875744746  5.5770434315  -2.6987266098
H  -6.2908386542  5.3467137861  -2.3519802012
H  -5.2429709432  5.4394968621  -3.7756525251
H  -5.0524379987  6.6113473384  -2.4586812609
C  -6.1596836074  -0.6710414563  -0.5796193080
H  -7.0667957189  -0.0901784764  -0.4519714858
H  -5.4840001874  -0.4320082837  0.2346077045
H  -6.3941030967  -1.7332875695  -0.5781979542
C  -6.5687612961  -0.6996451864  -3.4298643508
H  -6.1443697888  -0.5315913094  -4.4163336447
H  -7.4560558125  -0.0804634102  -3.3250749550
H  -6.8515157737  -1.7454900235  -3.3339165857
C  -3.9765568873  -1.3835220767  -2.3213495332
H  -3.2544267015  -1.1692671581  -1.5384348572
H  -3.4955913563  -1.2536768129  -3.2870305325
H  -4.3192055629  -2.4111875519  -2.2264328126
P  -6.2333068804  2.9315872424  -6.6050675556
C  -8.0031332296  2.9238446699  -6.2436960655
C  -5.9210050850  1.7853243627  -7.9706879331
H  -8.2334556064  3.6548586690  -5.4745183784
H  -8.3095366184  1.9402598529  -5.9008593008
H  -8.5563530407  3.1795191465  -7.1437665680
H  -4.8635268440  1.8006017093  -8.2194255003
H  -6.4903340887  2.0823760510  -8.8476835450
H  -6.2083549596  0.7780200693  -7.6830008225
C  -5.8065436729  4.5866285048  -7.2049480305
H  -6.0383487721  5.3176423198  -6.4353389356
H  -6.3656538644  4.8246194540  -8.1069312513
H  -4.7415610788  4.6202098045  -7.4108924480
H  -1.7675522695  1.4400630346  -2.4126807743