12
charge=0, multiplicity=1, basis=def2-QZVPP, AUX_BASIS_CORR=rimp2-def2-QZVPPD, SCF_ALGORITHM=GDM, xc_grid=000099000590, mem_total=3750, num_basis=468, num_pairs=103238, num_threads=1
C  -1.3750233614  -0.6129275770  -2.0791409707
C  -0.2660363734  -0.8863973784  -2.7529461994
H  -2.2275072195  -0.1413517460  -2.5495783512
H  -1.4725585141  -0.8482517759  -1.0257343017
C  0.9493312374  -1.5438825400  -2.1910615830
H  -0.2186411165  -0.6343029541  -3.8100198260
C  1.2802743459  -2.8593676943  -2.8895875189
H  0.8148753529  -1.7125994660  -1.1214654774
H  1.8026644193  -0.8663098450  -2.2930222243
H  0.4688533048  -3.5763514604  -2.7732393643
H  2.1865558256  -3.3045701999  -2.4805063304
H  1.4379240992  -2.7106273628  -3.9578888527