37
charge=1, multiplicity=6, basis=def2-QZVPP, AUX_BASIS_CORR=rimp2-def2-QZVPPD, SCF_ALGORITHM=GDM, xc_grid=000099000590, mem_total=60000, num_basis=1550, num_pairs=817958, num_threads=16
C  -0.0000349636  -1.1664186001  2.5057207377
C  -0.0000201843  -2.3302286759  1.8180238490
H  0.9216287396  -0.7294245303  2.8670388161
H  -0.9217129166  -0.7294304294  2.8670095682
H  -0.9204612010  -2.8557487959  1.6018514587
H  0.9204312908  -2.8557425969  1.6018809558
C  0.0000412858  -1.0100447627  -2.1940461498
C  0.0000228537  -2.2118482747  -1.5700803273
H  -0.9173901311  -0.5520487327  -2.5342310637
H  0.9174903243  -0.5520605848  -2.5341995001
H  0.9179995946  -2.7541093975  -1.3875852201
H  -0.9179672170  -2.7540974279  -1.3876165740
Cr  0.0000014934  -0.6298235271  0.1621577906
S  -2.7037297122  -0.1496722963  0.3175053658
S  2.7037309029  -0.1496714776  0.3175930528
C  -3.5657499706  -0.2255158015  -1.2849376929
C  -2.4597161075  1.6557451266  0.4800537090
C  -1.2277990510  2.1820604373  -0.2220952680
N  0.0000004322  1.5930166268  0.3417321502
C  1.2278156775  2.1820582589  -0.2220632481
C  2.4597130491  1.6557470875  0.4801232687
H  -2.4076727495  1.8560915756  1.5496385990
H  -3.3504108361  2.1586614045  0.1122267055
H  -1.2092687171  3.2734470591  -0.1341242177
H  -1.2541150772  1.9457056807  -1.2844060675
H  1.2092823354  3.2734453043  -0.1340980375
H  1.2541622027  1.9456980337  -1.2843721200
H  2.4076407330  1.8561009817  1.5497053549
H  3.3504179546  2.1586605533  0.1123171148
C  3.5658070014  -0.2255243419  -1.2848194544
H  -0.0000125736  1.7998650013  1.3376187590
H  3.0193134425  0.2996870148  -2.0622878306
H  3.6442307211  -1.2737961632  -1.5554183643
H  4.5645539462  0.1888754857  -1.1917679516
H  -3.6441645590  -1.2737859830  -1.5555455747
H  -3.0192289843  0.2996999465  -2.0623838664
H  -4.5645000289  0.1888838212  -1.1919187271