43
charge=0, multiplicity=1, basis=def2-QZVPP, mem_total=120000, AUX_BASIS_CORR=rimp2-def2-QZVPPD, SCF_ALGORITHM=GDM, xc_grid=000099000590, num_basis=2100, num_pairs=1080477, num_threads=32
N  0.7453803868  2.0483619474  -1.9137410982
C  0.9454110678  1.6743941535  -0.5246568562
H  0.8253242434  0.6016046084  -0.4018934158
H  0.2369465742  2.1694260860  0.1589253211
H  1.9559465241  1.9301983683  -0.2109710334
C  1.1252011051  3.8869049744  -3.5663041999
N  -0.1646794602  4.1868338315  -4.2050879068
C  -0.4396209987  0.1138004919  -2.8793896807
N  -1.6822780940  -0.3801593430  -3.4686103771
C  -0.2232839241  4.3114326242  -5.5871738452
C  0.1160522492  3.2639506425  -6.4481116445
F  0.5243633824  2.0857980901  -5.9393493086
C  0.0133314782  3.3828584904  -7.8245083717
F  0.3491231595  2.3554450962  -8.6110408073
C  -0.4740415460  4.5530749063  -8.3896530571
F  -0.5916090455  4.6642656198  -9.7161313583
C  -0.8439577541  5.6032175656  -7.5616397369
F  -1.3060383926  6.7399081676  -8.0909903060
C  -0.7032789141  5.4767855788  -6.1903898029
F  -1.0444841831  6.5171871680  -5.4027178879
H  -0.6048853020  4.9765125250  -3.7561936769
C  -2.8768127048  -0.3656496811  -2.7749344032
C  -3.0181667267  -0.7637662381  -1.4413078064
F  -1.9422159300  -1.1630960098  -0.7345781552
C  -4.2488524573  -0.7721494075  -0.8029658411
F  -4.3290797810  -1.1557683508  0.4765778119
C  -5.4003305066  -0.4131520590  -1.4864274502
F  -6.5916468315  -0.4420709222  -0.8762993503
C  -5.2984960931  -0.0291700863  -2.8160945096
F  -6.3939582674  0.3343388618  -3.4925112844
C  -4.0606107047  -0.0017886072  -3.4296821344
F  -3.9798111755  0.4063557988  -4.7152261141
H  -1.8053610433  -0.0488542028  -4.4121449889
C  0.9692353102  3.4702959611  -2.1120613078
H  1.7830009726  4.7611913019  -3.6207365927
H  1.6127618838  3.0820037598  -4.1056994685
H  0.1908443435  4.0926046437  -1.6319257683
H  1.9018528777  3.7167446097  -1.6048718926
C  -0.5289962067  1.5666256335  -2.4282047665
H  0.3268695689  0.0311016312  -3.6458510866
H  -0.1422325472  -0.5384862258  -2.0658626997
H  -0.8131535763  2.1714275357  -3.2837584762
H  -1.3332329607  1.6799204604  -1.6840646649