15
charge=0, multiplicity=1, basis=def2-QZVPP, AUX_BASIS_CORR=rimp2-def2-QZVPPD, SCF_ALGORITHM=GDM, xc_grid=000099000590, mem_total=3750, num_basis=585, num_pairs=157304, num_threads=1
O  -3.8981453069  3.0926508723  -4.0149826283
C  -3.8793014394  4.3407678495  -4.6875323561
C  -3.5694457648  4.2537087811  -6.1687566933
H  -3.1080231555  4.9215934879  -4.1815938840
H  -4.8311111099  4.8662509848  -4.5336403851
H  -2.6326963096  3.7242804657  -6.3346783392
H  -3.4762201300  5.2550558951  -6.5908822103
H  -4.3554606583  3.7386139401  -6.7189335053
C  -5.0025024143  2.2473290974  -4.3210553145
C  -4.5947059979  1.0505383148  -5.1531634572
H  -5.7917041404  2.8167489483  -4.8232454690
H  -5.4153226352  1.9070929615  -3.3677744058
H  -4.2291993520  1.3480140682  -6.1337661355
H  -5.4426467301  0.3784309548  -5.2933667986
H  -3.8025648557  0.4956633786  -4.6537084178