61
charge=0, multiplicity=2, basis=def2-QZVPP, mem_total=240000, AUX_BASIS_CORR=rimp2-def2-QZVPPD, SCF_ALGORITHM=GDM, xc_grid=000099000590, num_basis=2650, num_pairs=2006958, num_threads=64
C  -1.4573762059  -1.4565462731  -4.1073901206
C  -1.7256257427  -2.3331518070  -3.0303829300
C  -1.0596632955  -3.5453051176  -3.2816683302
H  -2.3264295321  -2.1099462149  -2.1645793831
C  -0.3969574610  -3.4345637443  -4.5186979353
C  -0.6325556421  -2.1314909417  -5.0293243295
H  -0.2138270903  -1.7137287434  -5.9282240922
H  -1.8123374692  -0.4445282962  -4.1996914337
H  -1.0588091895  -4.4064174704  -2.6406661846
H  0.2070813958  -4.1970866960  -4.9759275344
C  -4.6554734455  -2.1259720128  -6.4470038119
C  -4.4467611981  -1.3295322225  -5.3058697053
C  -4.8827904159  -2.0584184474  -4.1773483295
H  -4.0373820820  -0.3337515707  -5.2976492303
C  -5.3618070457  -3.3060662449  -4.6208441838
C  -5.2113820120  -3.3572076960  -6.0231437324
H  -5.4773403499  -4.1805891289  -6.6602886687
H  -4.4563294865  -1.8301375445  -7.4615192945
H  -4.8565761028  -1.7178932122  -3.1555762582
H  -5.7681531218  -4.0807169350  -3.9975479131
Zr  -2.8706990322  -3.2985870948  -5.0742436898
H  -0.1347321182  -5.3033645174  -7.1284783250
H  0.3805134109  -3.6493989349  -7.4458023549
C  -0.2981115179  -4.4363249224  -7.7593878291
H  -0.0843925378  -4.6896912070  -8.7942061036
H  -1.6790486084  -6.6889164763  -8.2335574814
C  -2.6093573470  -6.3531933532  -8.6681143552
P  -2.0255559707  -3.8129996855  -7.5849734857
H  -3.1016495744  -8.3062353112  -9.3835316451
H  -2.0749270566  -0.9192484986  -7.2137113226
C  -3.4185220232  -7.2741445386  -9.3146765206
C  -2.9952721551  -5.0164023379  -8.5648037309
C  -1.9409846266  -1.0820829929  -8.2743543894
C  -1.9263062256  -2.3843811383  -8.7617546011
C  -1.8033586679  -0.0031654347  -9.1366140893
C  -4.6292070727  -6.8788333953  -9.8658086672
H  -1.8195148939  1.0050933265  -8.7440904788
C  -4.2117715297  -4.6264547608  -9.1312111331
C  -1.7711342179  -2.5915371997  -10.1314925070
H  -5.2622569797  -7.5996633090  -10.3653846805
C  -5.0197694112  -5.5492776422  -9.7735504073
H  -1.7726154264  -3.5987312802  -10.5267661439
C  -1.6518729768  -0.2174415905  -10.4984476235
H  -4.5201298889  -3.5913501245  -9.0870142160
C  -1.6366524043  -1.5150535796  -10.9940549427
H  -1.5481954122  0.6222484407  -11.1729862371
H  -5.9570804207  -5.2278118462  -10.2083037537
H  -1.5225011743  -1.6882717714  -12.0560391166
C  -3.1646303495  -5.6446238373  -4.4763548537
C  -1.8814609743  -6.4274769131  -4.7351538754
C  -4.2455055846  -6.3176630904  -5.3187740334
C  -3.5493459813  -5.8372870906  -3.0130463884
H  -2.7936899625  -5.4714644675  -2.3192425539
H  -3.6953833503  -6.9041917373  -2.7814406253
H  -4.4823004004  -5.3348892341  -2.7569066445
H  -1.5760523095  -6.3699221348  -5.7800317674
H  -2.0254704700  -7.4966646768  -4.5124384498
H  -1.0393343202  -6.0968545526  -4.1301313227
H  -4.0771734082  -6.2085977498  -6.3879044893
H  -5.2450590899  -5.9452164164  -5.1030632520
H  -4.2718424463  -7.3989966040  -5.1121785118