38
charge=0, multiplicity=2, basis=def2-QZVPP, AUX_BASIS_CORR=rimp2-def2-QZVPPD, SCF_ALGORITHM=GDM, xc_grid=000099000590, mem_total=60000, num_basis=1675, num_pairs=974847, num_threads=16
Ti  -2.8073126990  3.6812123047  1.8797178085
Cl  -3.7101009953  3.3304588992  -0.2786403050
C  -4.7952732679  4.4732203667  3.0123594144
C  -5.1648586314  3.2764408216  2.3727000606
C  -4.4415966642  2.2238791912  2.9576428665
H  -5.8386128060  3.1908531849  1.5407627340
C  -3.6248320794  2.7650098597  3.9669904619
C  -3.8440126987  4.1543315111  4.0057161838
H  -3.3708109499  4.8492604131  4.6764008117
H  -5.1630630503  5.4552545728  2.7702290595
H  -4.4442118040  1.2005974874  2.6275247803
H  -2.9142769001  2.2209180050  4.5646517337
C  -2.2187523685  5.7984219439  0.8524271013
C  -2.2581711159  6.0188972229  2.2317518474
C  -1.2529798138  5.2204782875  2.8302335344
H  -2.9560015161  6.6506650646  2.7520290127
C  -0.5552979460  4.5624308453  1.7989033907
C  -1.1613149875  4.8944270421  0.5829639532
H  -0.9152242470  4.4983794865  -0.3855907142
H  -2.8983979793  6.2012373509  0.1229947760
H  -1.0349390572  5.1481774062  3.8816671776
H  0.2408494764  3.8524103749  1.9430802179
O  -1.8834114564  2.0924781470  1.8748633488
C  1.0023255896  1.5535918527  2.6366016294
C  0.0981229222  0.7078059793  1.8125009520
C  0.6626716948  1.8132300131  4.0554000914
C  2.3438691894  1.9093993984  2.1148314614
C  -0.9437803379  1.5058025390  1.0208562092
H  -0.4429241988  -0.0092847786  2.4357737914
H  0.6735446000  0.1268742431  1.0852927971
H  -0.4407641703  2.2470263440  0.3926557963
H  -1.4871829488  0.8384290437  0.3426671812
H  0.9801078328  0.9912899675  4.7147503192
H  -0.4133940211  1.9171978877  4.1879979926
H  1.1451624015  2.7151952904  4.4354738118
H  3.0875130738  1.1224904212  2.3130263213
H  2.7358301659  2.8200068421  2.5706080602
H  2.3365517646  2.0514251676  1.0325643291