80
charge=0, multiplicity=2, basis=def2-QZVPP, mem_total=700000, AUX_BASIS_CORR=rimp2-def2-QZVPPD, SCF_ALGORITHM=GDM, xc_grid=000099000590, num_basis=3299, num_pairs=2645148, num_threads=128
Zr  -0.2678745874  1.0890731426  1.6264503596
C  -0.4655745714  0.8730829927  -0.9806859421
C  0.6730493581  1.6459487377  -0.6839230752
C  1.5577101281  0.7812774794  0.0494080517
Si  0.8106953057  3.4300741282  -1.1942085004
C  0.9273296327  -0.4780855313  0.2010561565
C  -0.3603748877  -0.4206832901  -0.4366148105
Si  -1.7381719237  -1.6631094860  -0.5826805152
H  -1.3443359649  1.2533088745  -1.4722285083
H  2.5574841296  1.0230279200  0.3717644479
H  1.3704235829  -1.3474211530  0.6592430487
C  0.5713296202  0.9186523802  3.7949908242
Cl  -2.5158666879  2.1696991465  1.2576085088
C  -2.8810766780  -1.1551529726  -1.9819832837
C  -1.0830379320  -3.3905164573  -0.9367732896
C  -0.4237219845  3.7729037072  -2.5654110414
C  2.5371731378  3.8474574469  -1.8134118800
H  -0.6289806934  -3.4172273248  -1.9272215830
H  -1.8883495793  -4.1251036811  -0.9250030741
H  -0.3273578539  -3.7211114170  -0.2274531748
H  -3.3318033023  -0.1825328411  -1.7907243853
H  -3.6926973783  -1.8741271759  -2.0950865895
H  -2.3526120650  -1.1004224266  -2.9328719769
H  2.7357852138  3.3152925370  -2.7435577862
H  3.3245488078  3.5763783042  -1.1132609188
H  2.6328520395  4.9138595945  -2.0182770556
H  -0.2436635786  3.1435915363  -3.4360280465
H  -0.3609801850  4.8120510040  -2.8888168782
H  -1.4443258744  3.5974190233  -2.2286199849
C  -2.7415066423  -1.6061995707  1.0250173619
C  0.3233818692  4.4967013448  0.2953750104
P  -1.6511392885  -1.1682235096  2.4288583602
H  -3.3383703777  -2.5019850160  1.1917702836
H  -3.4282310144  -0.7654455421  0.9178713413
C  -0.6360165853  -2.7263286654  2.6628263157
C  -2.7369621235  -1.0760101699  3.9603779332
P  0.7692019905  3.6415453249  1.8519768658
H  -0.7666641560  4.5374754607  0.2888968339
H  0.6918186905  5.5199009870  0.2317672125
C  0.1866403473  4.7375120319  3.2633974589
C  2.6381130939  3.7853667798  1.8823946497
C  -3.0517610526  0.3701282355  4.3164553996
H  -2.1116609421  -1.4959269898  4.7519898559
C  -4.0191906745  -1.8898323918  3.8650602928
H  -4.6905335804  -1.4705783436  3.1181062457
H  -4.5427849992  -1.8634049895  4.8218567894
H  -3.8483861996  -2.9318880473  3.6123842658
H  -2.1497146421  0.9567855168  4.4598376768
H  -3.6306799822  0.4083310222  5.2405236599
H  -3.6300684136  0.8545528213  3.5339695506
H  -0.1377006525  -2.8199724553  1.6976343187
C  -1.4288681988  -4.0008082001  2.9052183826
C  0.4455572437  -2.5480303504  3.7153863273
H  -2.2141323286  -4.1552992297  2.1695994124
H  -1.8827464835  -4.0037207814  3.8945981314
H  -0.7637326710  -4.8643873362  2.8559800435
H  1.0929375871  -1.7079441529  3.4892576367
H  1.0597541640  -3.4473813793  3.7742326916
H  0.0245783700  -2.3808827827  4.7060665866
H  2.9245315893  3.2681822277  0.9663835648
C  3.2438174413  3.0163872155  3.0449848627
C  3.1906347905  5.1998859582  1.8126321939
H  2.7750436404  5.7733307480  0.9876466004
H  4.2723181366  5.1677196352  1.6729741452
H  3.0032170408  5.7442683762  2.7361898344
H  2.9470342488  1.9734037810  3.0333338304
H  2.9448257641  3.4319121498  4.0064287429
H  4.3323546617  3.0637496490  2.9971487037
C  -1.1128812141  4.2120184354  3.8568620326
C  0.0430505270  6.2063404888  2.8927097032
H  0.9724172711  4.6390957524  4.0162408685
H  -0.7652268900  6.3487018277  2.1778880371
H  0.9453475657  6.6316524863  2.4642562520
H  -0.2058467872  6.7866375820  3.7824007155
H  -1.9210336502  4.2426329715  3.1305624672
H  -1.4035501276  4.8206371439  4.7144954032
H  -1.0182175510  3.1833687950  4.1899931420
H  1.5369045469  0.4117168337  3.6689906591
H  0.0123818478  0.3008430278  4.4996682676
H  0.7997495717  1.8483910958  4.3181039821