76
charge=0, multiplicity=3, basis=def2-QZVPP, mem_total=700000, AUX_BASIS_CORR=rimp2-def2-QZVPPD, SCF_ALGORITHM=GDM, xc_grid=000099000590, num_basis=3313, num_pairs=2783867, num_threads=128
N  4.7203439441  1.1014884163  -4.1183455888
P  3.5765043542  -0.8821812243  -2.2234074820
P  1.7849159376  1.1540000878  -4.9827661990
C  2.8297030997  2.0706591327  -6.1605890636
C  0.1536388107  1.9053048578  -4.6377871440
C  5.3201659877  -0.5477528128  -1.7661709745
C  2.5150850412  -1.3091907216  -0.7890269929
Si  1.4074522768  0.2262941356  -0.4954543015
H  3.0903717027  -1.6099839391  0.0851314313
H  1.8752135962  -2.1465848220  -1.0663913642
C  2.3586765742  1.3964279641  0.6293223367
C  -0.1507015691  -0.3280770699  0.4001317883
Si  -0.2990978814  1.5270375270  -2.8017121179
H  -0.6104620887  1.5856363285  -5.3459397511
H  0.2795772463  2.9835893225  -4.7393166959
C  -1.7447973129  0.3216910816  -2.8044273001
C  -0.8619816954  3.1361703353  -2.0194808477
Si  4.6679549430  1.6669616778  -5.7471985523
H  2.6632553176  3.1229567115  -5.9279156371
H  2.5776259265  1.9291528847  -7.2116327689
C  5.6585199664  3.2462147481  -5.9542754888
C  5.2508203978  0.4195655214  -7.0340553270
Si  6.0600688606  0.5491449677  -3.1734558383
H  5.8925789358  -1.4589174473  -1.5899275432
H  5.3152215835  0.0268543922  -0.8387996229
C  1.4330332872  -0.4992686658  -5.6614317756
C  0.9444377889  -1.4675859478  -4.7835384214
H  0.8245257348  -1.2154891695  -3.7389662043
C  0.6610085423  -2.7438747671  -5.2338656095
H  0.2966251056  -3.4891458438  -4.5401665079
C  0.8844172873  -3.0788057944  -6.5628414775
H  0.6828539824  -4.0831317503  -6.9106162670
C  1.3831945468  -2.1266358401  -7.4384148870
H  1.5652952984  -2.3835438451  -8.4736721292
C  1.6522751976  -0.8394524676  -6.9929768161
H  2.0343776218  -0.1082388576  -7.6905516942
C  3.7112295364  -2.3781032855  -3.2720112621
C  3.4457803407  -3.6567503350  -2.7893401476
H  3.1592006384  -3.8026061975  -1.7567774483
C  3.5565181215  -4.7589539122  -3.6265570272
H  3.3460644289  -5.7478345369  -3.2404178079
C  3.9431582517  -4.5960730682  -4.9485895633
H  4.0271921195  -5.4561737023  -5.5998120251
C  4.2175019107  -3.3237328650  -5.4321800343
H  4.5089891755  -3.1850271488  -6.4645219664
C  4.0955967335  -2.2236925896  -4.6021691598
H  4.2795285333  -1.2301743012  -4.9773358821
H  4.6175820827  -0.4648685407  -7.0684034757
H  6.2702025456  0.0887041380  -6.8452301168
H  5.2337041689  0.8710582846  -8.0272578120
H  5.3516798526  3.9772577547  -5.2075343933
H  5.5309346926  3.6903096454  -6.9420851862
H  6.7236880853  3.0595431792  -5.8140347489
C  7.3167955086  -0.4702391893  -4.1305981935
C  6.9521747275  1.9791344851  -2.3481243230
H  6.8615164910  -1.3384163289  -4.6027598968
H  8.1029634384  -0.8283654715  -3.4649919238
H  7.7994135036  0.1225286848  -4.9076948475
H  6.2504463418  2.6058318213  -1.7983953645
H  7.4358373326  2.6158394603  -3.0888006764
H  7.7195728494  1.6354596688  -1.6532445738
H  -0.6903403897  -1.0882432591  -0.1627920883
H  -0.8315421103  0.5064319569  0.5673440419
H  0.0923519918  -0.7489799140  1.3762065380
H  3.3317417284  1.6696821117  0.2185268059
H  2.5319038831  0.9562482631  1.6125470290
H  1.8100978466  2.3274063802  0.7668318057
H  -1.4855555122  -0.6325764522  -3.2598648175
H  -2.5817603879  0.7356949366  -3.3685282636
H  -2.1022058766  0.1241264845  -1.7954272128
H  -0.0423511635  3.8535053667  -2.0126466906
H  -1.1692297447  2.9782714967  -0.9850880893
H  -1.7047376873  3.5832384654  -2.5479659982
N  1.1304087271  0.9297306307  -2.0436029119
Nb  2.9984043122  1.4964665503  -2.9086026109
Cl  3.2198646246  3.8265322272  -2.4073068462