14
charge=0, multiplicity=1, basis=def2-QZVPP, AUX_BASIS_CORR=rimp2-def2-QZVPPD, SCF_ALGORITHM=GDM, xc_grid=000099000590, mem_total=3750, num_basis=568, num_pairs=153841, num_threads=1
C  -1.8811768982  -2.7189511428  -8.1597265036
C  -0.3689751744  -2.7895599909  -8.1638295851
C  -2.4187893998  -1.9919848903  -9.3739931180
C  -2.4187003385  -2.1404564622  -6.8680963653
Cl  -2.5032906522  -4.4757420688  -8.2637189700
H  -2.0778748162  -0.9555586381  -9.3539292082
H  -3.5057123745  -1.9926684139  -9.3838239786
H  -2.0656178512  -2.4488240558  -10.2948975382
H  0.0396702050  -1.7794900676  -8.1037913539
H  0.0011410143  -3.2529191083  -9.0747577839
H  0.0008464048  -3.3572884554  -7.3138667924
H  -2.0781806506  -1.1087973611  -6.7653335582
H  -2.0652425863  -2.7027780583  -6.0076322108
H  -3.5056268822  -2.1426912864  -6.8581830339