10
charge=0, multiplicity=2, basis=def2-QZVPPD, AUX_BASIS_CORR=rimp2-def2-QZVPPD, SCF_ALGORITHM=GDM, xc_grid=000099000590, mem_total=3750, num_basis=483, num_pairs=110164, num_threads=1
N  -1.7905778284  -0.2666627646  0.0373876129
C  -0.6121047668  0.4118974068  -0.0319642265
C  0.6011378552  -0.3638015503  -0.0106624629
O  0.5779206090  -1.5997814951  -0.0146541811
N  1.7948149110  0.3378901345  -0.0351568029
H  -1.7173110514  -1.2716264796  -0.0583745709
H  -2.6498900979  0.1702260160  -0.2484061260
H  -0.6380142915  1.4914777469  -0.0658807889
H  1.8157849593  1.2990154065  0.2649720600
H  2.6182397013  -0.2086344212  0.1627394863