5
charge=0, multiplicity=2, basis=def2-QZVPPD, AUX_BASIS_CORR=rimp2-def2-QZVPPD, SCF_ALGORITHM=GDM, xc_grid=000099000590, mem_total=3750, num_basis=255, num_pairs=32713, num_threads=1
H  0.9345115339  0.0000000000  -1.1103670430
C  0.0000000000  0.0000000000  -0.5670269463
C  0.0000000000  0.0000000000  0.8102813127
H  -0.9345115339  0.0000000000  -1.1103670430
N  0.0000000000  0.0000000000  1.9774797196