7
charge=1, multiplicity=2, basis=def2-QZVPPD, AUX_BASIS_CORR=rimp2-def2-QZVPPD, SCF_ALGORITHM=GDM, xc_grid=000099000590, mem_total=3750, num_basis=291, num_pairs=42987, num_threads=1
C  -0.8653040859  0.0381231645  0.0000000000
N  0.6043739814  0.0200831346  0.0000000000
H  -1.3495564862  -0.0520797360  -0.9589330379
H  0.9864328651  0.4920992043  0.8280977137
H  -1.3495564862  -0.0520797360  0.9589330379
H  0.9871773467  -0.9382452357  0.0000000000
H  0.9864328651  0.4920992043  -0.8280977137