6
charge=0, multiplicity=1, basis=def2-QZVPPD, AUX_BASIS_CORR=rimp2-def2-QZVPPD, SCF_ALGORITHM=GDM, xc_grid=000099000590, mem_total=3750, num_basis=261, num_pairs=34660, num_threads=1
C  -0.3417864456  0.1212933299  0.0000000000
O  1.0798284853  0.1987883689  0.0000000000
H  1.4366441407  -0.6953247688  0.0000000000
H  -0.7131858638  1.1455185445  0.0000000000
H  -0.7307501583  -0.3851377372  -0.8914664193
H  -0.7307501583  -0.3851377372  0.8914664193