10
charge=0, multiplicity=1, basis=def2-QZVPPD, AUX_BASIS_CORR=rimp2-def2-QZVPPD, SCF_ALGORITHM=GDM, xc_grid=000099000590, mem_total=3750, num_basis=486, num_pairs=112918, num_threads=1
N  0.2766118275  0.2724574064  1.5570832323
C  -0.5204245018  -0.0691122299  0.3907521461
C  0.3038774062  0.0688260645  -0.8683280405
O  1.5070704686  0.0432554321  -0.9163155697
O  -0.4764990456  0.1799585829  -1.9684895992
H  1.2203674278  -0.0839245557  1.4561715357
H  -0.1282254309  -0.1052574133  2.4037832211
H  0.1128234973  0.2098757478  -2.7389443297
H  -0.9053132508  -1.1028750173  0.3741557213
H  -1.3902883982  0.5867959824  0.3101316826