7
charge=0, multiplicity=2, basis=def2-QZVPPD, AUX_BASIS_CORR=rimp2-def2-QZVPPD, SCF_ALGORITHM=GDM, xc_grid=000099000590, mem_total=3750, num_basis=357, num_pairs=63023, num_threads=1
C  -1.0672241338  -0.1527425063  0.0000000000
C  0.2982317651  0.3103792527  0.0000000000
O  1.2033288267  -0.7098296357  0.0000000000
H  -1.2998891701  -1.2076594262  0.0000000000
H  -1.8545001026  0.5856790763  0.0000000000
O  0.6355211251  1.4799995671  0.0000000000
H  2.0845316896  -0.3058263280  0.0000000000