6
charge=0, multiplicity=2, basis=def2-QZVPPD, AUX_BASIS_CORR=rimp2-def2-QZVPPD, SCF_ALGORITHM=GDM, xc_grid=000099000590, mem_total=3750, num_basis=258, num_pairs=33861, num_threads=1
C  0.6826843108  -0.0247665731  0.0000000000
N  -0.7062794783  0.0878647477  0.0000000000
H  1.1872774190  0.1994508586  0.9295832228
H  -1.1754798353  -0.2309999459  -0.8352242035
H  1.1872774190  0.1994508586  -0.9295832228
H  -1.1754798353  -0.2309999459  0.8352242035