7
charge=0, multiplicity=1, basis=def2-QZVPPD, AUX_BASIS_CORR=rimp2-def2-QZVPPD, SCF_ALGORITHM=GDM, xc_grid=000099000590, mem_total=3750, num_basis=321, num_pairs=50554, num_threads=1
C  0.0000000000  0.0000000000  -0.9511245125
C  0.0000000000  0.0000000000  0.5045209531
C  0.0000000000  0.0000000000  1.7054789966
H  0.5101703065  0.8836408913  -1.3421979225
H  0.5101703065  -0.8836408913  -1.3421979225
H  -1.0203406129  0.0000000000  -1.3421979225
H  0.0000000000  0.0000000000  2.7677183303