8
charge=1, multiplicity=1, basis=def2-QZVPPD, AUX_BASIS_CORR=rimp2-def2-QZVPPD, SCF_ALGORITHM=GDM, xc_grid=000099000590, mem_total=3750, num_basis=337, num_pairs=56689, num_threads=1
C  0.0000000000  0.0000000000  -0.9710893915
P  0.0000000000  0.0000000000  0.8440950588
H  -0.6516770058  1.1287376842  1.3702015213
H  -0.6516770058  -1.1287376842  1.3702015213
H  1.3033540116  0.0000000000  1.3702015213
H  -1.0303856523  0.0000000000  -1.3278700770
H  0.5151928262  0.8923401506  -1.3278700770
H  0.5151928262  -0.8923401506  -1.3278700770