6
charge=0, multiplicity=2, basis=def2-QZVPPD, AUX_BASIS_CORR=rimp2-def2-QZVPPD, SCF_ALGORITHM=GDM, xc_grid=000099000590, mem_total=3750, num_basis=324, num_pairs=52426, num_threads=1
C  0.0000000000  0.0000000000  0.7338966980
N  0.0000000000  0.0000000000  -0.6797309288
O  -1.0974287236  0.0000000000  -1.2476024495
O  1.0974287236  0.0000000000  -1.2476024495
H  -0.9617364269  0.0000000000  1.2205195649
H  0.9617364269  0.0000000000  1.2205195649