9
charge=0, multiplicity=1, basis=def2-QZVPPD, AUX_BASIS_CORR=rimp2-def2-QZVPPD, SCF_ALGORITHM=GDM, xc_grid=000099000590, mem_total=3750, num_basis=420, num_pairs=86710, num_threads=1
C  -1.1052586550  0.0986798338  0.0000000000
C  0.3598602369  0.4980523599  0.0000000000
N  1.2555104137  -0.5330524733  0.0000000000
O  0.7132515621  1.6628105755  0.0000000000
H  0.9727618380  -1.4968913752  0.0000000000
H  2.2388556026  -0.3137959641  0.0000000000
H  -1.5832376660  0.5320111070  0.8797148153
H  -1.2685056663  -0.9798251706  0.0000000000
H  -1.5832376660  0.5320111070  -0.8797148153