13
charge=0, multiplicity=1, basis=def2-QZVPPD, AUX_BASIS_CORR=rimp2-def2-QZVPPD, SCF_ALGORITHM=GDM, xc_grid=000099000590, mem_total=3750, num_basis=549, num_pairs=146836, num_threads=1
C  -0.6951167805  -1.2039775811  -0.0399002145
N  0.0000000000  0.0000000000  -0.4651214582
C  -0.6951167805  1.2039775811  -0.0399002145
C  1.3902335611  0.0000000000  -0.0399002145
H  -1.7140027232  -1.2020360587  -0.4327520838
H  -0.7529236487  -1.3041020138  1.0604448683
H  -0.1839924015  -2.0853879298  -0.4327520838
H  -1.7140027232  1.2020360587  -0.4327520838
H  -0.1839924015  2.0853879298  -0.4327520838
H  -0.7529236487  1.3041020138  1.0604448683
H  1.8979951247  -0.8833518711  -0.4327520838
H  1.8979951247  0.8833518711  -0.4327520838
H  1.5058472974  0.0000000000  1.0604448683