8
charge=0, multiplicity=2, basis=def2-QZVPPD, AUX_BASIS_CORR=rimp2-def2-QZVPPD, SCF_ALGORITHM=GDM, xc_grid=000099000590, mem_total=3750, num_basis=357, num_pairs=63322, num_threads=1
C  -1.3293757635  0.0216561976  0.0000000000
O  -0.1882274050  0.7581461586  0.0000000000
C  1.0437675493  0.0263769003  0.0000000000
H  -1.8113584076  -0.1837304984  0.9506528537
H  -1.8113584076  -0.1837304984  -0.9506528537
H  1.8432822897  0.7656253526  0.0000000000
H  1.1266350723  -0.6021718062  -0.8928960711
H  1.1266350723  -0.6021718062  0.8928960711