6
charge=0, multiplicity=1, basis=def2-QZVPPD, AUX_BASIS_CORR=rimp2-def2-QZVPPD, SCF_ALGORITHM=GDM, xc_grid=000099000590, mem_total=3750, num_basis=291, num_pairs=42419, num_threads=1
F  -1.7088569222  -0.2764157928  0.0000000000
C  -0.5101422390  0.3473640371  0.0000000000
C  0.6273181213  -0.3190946461  0.0000000000
H  -0.6214912651  1.4244460677  0.0000000000
H  0.6516090669  -1.4006150512  0.0000000000
H  1.5615632381  0.2243153852  0.0000000000