8
charge=0, multiplicity=2, basis=def2-QZVPPD, AUX_BASIS_CORR=rimp2-def2-QZVPPD, SCF_ALGORITHM=GDM, xc_grid=000099000590, mem_total=3750, num_basis=370, num_pairs=66923, num_threads=1
C  -1.5437976757  -0.0641548750  0.0309122071
S  -0.2942654512  1.1262039541  0.0042206218
C  1.2054936240  0.0779731461  0.0213822241
H  -2.5596401466  0.2959510901  0.0866844379
H  -1.3359090243  -1.0959973394  -0.2116934278
H  2.0627225320  0.7472920591  -0.0296286314
H  1.2143322921  -0.5846123019  -0.8435958850
H  1.2510638497  -0.5026557331  0.9417184534