9
charge=0, multiplicity=1, basis=def2-QZVPPD, AUX_BASIS_CORR=rimp2-def2-QZVPPD, SCF_ALGORITHM=GDM, xc_grid=000099000590, mem_total=3750, num_basis=489, num_pairs=114152, num_threads=1
C  -1.2244072899  0.0536268124  0.0000000000
O  0.0169939015  0.7901581677  0.0000000000
C  1.1415363093  0.0648522004  0.0000000000
F  2.1838113531  0.8947679162  0.0000000000
F  1.2455578650  -0.7440312484  1.0837145382
F  1.2455578650  -0.7440312484  -1.0837145382
H  -2.0027436260  0.8107735532  0.0000000000
H  -1.3031531890  -0.5630580765  -0.8953832629
H  -1.3031531890  -0.5630580765  0.8953832629