9
charge=0, multiplicity=2, basis=def2-QZVPPD, AUX_BASIS_CORR=rimp2-def2-QZVPPD, SCF_ALGORITHM=GDM, xc_grid=000099000590, mem_total=3750, num_basis=436, num_pairs=92115, num_threads=1
C  -0.8697779398  -1.2401405787  0.0431305326
S  -0.6540546840  0.3754716041  -0.6089612323
O  -1.5855411362  1.3468512431  0.0955259793
C  1.0652811298  0.6980648694  0.0070709907
H  -1.8468795261  -1.4607101191  0.4511897805
H  -0.2305754795  -2.0310051527  -0.3303826260
H  1.7422892582  -0.0566614840  -0.3922080468
H  1.3352513218  1.6865659687  -0.3601357020
H  1.0440070558  0.6815636493  1.0947703240