5
charge=0, multiplicity=2, basis=def2-QZVPPD, AUX_BASIS_CORR=rimp2-def2-QZVPPD, SCF_ALGORITHM=GDM, xc_grid=000099000590, mem_total=3750, num_basis=241, num_pairs=29429, num_threads=1
C  -0.5302909990  -0.2402434271  0.0000000000
S  1.2057935560  -0.2976603018  0.0000000000
H  1.4365903712  1.0321854217  0.0000000000
H  -1.0667877147  0.6929251454  0.0000000000
H  -1.0453052135  -1.1872068384  0.0000000000