7
charge=0, multiplicity=2, basis=def2-QZVPPD, AUX_BASIS_CORR=rimp2-def2-QZVPPD, SCF_ALGORITHM=GDM, xc_grid=000099000590, mem_total=3750, num_basis=390, num_pairs=74842, num_threads=1
C  -0.5644475258  0.0070061331  0.0412815048
C  0.9118603467  -0.0104883418  -0.0117630277
F  -1.1214044522  -0.0122687634  -1.2014570989
F  -1.0573012029  -1.0661773793  0.7000377642
F  -1.0330992282  1.1158454319  0.6563811445
H  1.4204861108  -0.9587714546  -0.0925331162
H  1.4439059516  0.9248543741  -0.0919471707