11
charge=0, multiplicity=2, basis=def2-QZVPPD, AUX_BASIS_CORR=rimp2-def2-QZVPPD, SCF_ALGORITHM=GDM, xc_grid=000099000590, mem_total=3750, num_basis=516, num_pairs=125292, num_threads=1
C  -2.0069607540  0.0022808403  0.4053219019
C  -0.7712712547  0.0144488305  -0.3606558035
N  0.3885008678  0.0381904070  0.3751518047
O  -0.7593242317  0.0146771906  -1.5914021542
H  0.3353654114  -0.0482760674  1.3760448136
C  1.6907954136  -0.0016765484  -0.2629314690
H  -2.0251958039  0.0040929864  1.4881927580
H  -2.9389712427  -0.0083197618  -0.1397335052
H  1.7068530237  0.6906611766  -1.1043616776
H  1.9291868903  -0.9993415087  -0.6454117596
H  2.4510216803  0.2932624550  0.4597850909