7
charge=0, multiplicity=1, basis=def2-QZVPPD, AUX_BASIS_CORR=rimp2-def2-QZVPPD, SCF_ALGORITHM=GDM, xc_grid=000099000590, mem_total=3750, num_basis=291, num_pairs=42987, num_threads=1
C  -0.5676009302  0.0922570764  0.0000000000
N  0.8940110740  0.1750131773  0.0000000000
H  1.2846925277  -0.2817273310  0.8156369452
H  1.2846925277  -0.2817273310  -0.8156369452
H  -0.9572223244  0.6115789132  0.8779527571
H  -0.9813505506  -0.9269734181  0.0000000000
H  -0.9572223244  0.6115789132  -0.8779527571