8
charge=1, multiplicity=1, basis=def2-QZVPPD, AUX_BASIS_CORR=rimp2-def2-QZVPPD, SCF_ALGORITHM=GDM, xc_grid=000099000590, mem_total=3750, num_basis=324, num_pairs=53195, num_threads=1
C  0.0000000000  0.0000000000  -0.7706008486
N  0.0000000000  0.0000000000  0.7447883281
H  -0.4766443334  0.8255722026  1.1198008910
H  -0.4766443334  -0.8255722026  1.1198008910
H  0.9532886668  0.0000000000  1.1198008910
H  -1.0320545642  0.0000000000  -1.1111967175
H  0.5160272821  0.8937854707  -1.1111967175
H  0.5160272821  -0.8937854707  -1.1111967175