8
charge=0, multiplicity=2, basis=def2-QZVPPD, AUX_BASIS_CORR=rimp2-def2-QZVPPD, SCF_ALGORITHM=GDM, xc_grid=000099000590, mem_total=3750, num_basis=387, num_pairs=73816, num_threads=1
C  -1.2003063955  -0.2410075944  0.0000000000
C  0.0284001315  0.5369077681  0.0000000000
N  1.2007744475  -0.1799175049  0.0000000000
O  0.0214358628  1.7653387888  0.0000000000
H  -1.2095968646  -1.3237631884  0.0000000000
H  -2.1356995166  0.2981813262  0.0000000000
H  1.2256195339  -1.1841862147  0.0000000000
H  2.0693728011  0.3284466193  0.0000000000