8
charge=0, multiplicity=2, basis=def2-QZVPPD, AUX_BASIS_CORR=rimp2-def2-QZVPPD, SCF_ALGORITHM=GDM, xc_grid=000099000590, mem_total=3750, num_basis=357, num_pairs=63470, num_threads=1
C  -1.0427541398  -0.4581210943  0.0000000000
C  0.1857330771  0.3631693822  0.0000000000
O  1.3261710255  -0.4945141014  0.0000000000
H  -0.9718319334  -1.5361972204  0.0000000000
H  -2.0133408124  0.0185123362  0.0000000000
H  0.1976771150  1.0288848335  -0.8815890751
H  0.1976771150  1.0288848335  0.8815890751
H  2.1206685531  0.0493810307  0.0000000000