14
charge=0, multiplicity=1, basis=def2-QZVPPD, AUX_BASIS_CORR=rimp2-def2-QZVPPD, SCF_ALGORITHM=GDM, xc_grid=000099000590, mem_total=3750, num_basis=582, num_pairs=164157, num_threads=1
C  0.7298394512  -1.2641190108  -0.0654215289
C  0.0000000000  0.0000000000  0.4017829057
C  0.7298394512  1.2641190108  -0.0654215289
C  -1.4596789024  0.0000000000  -0.0654215289
H  1.7615864562  -1.2846363736  0.2952692245
H  0.2317345060  -2.1678968088  0.2952692245
H  0.7590293806  -1.3146774516  -1.1586329153
H  0.0000000000  0.0000000000  1.4987650798
H  0.2317345060  2.1678968088  0.2952692245
H  0.7590293806  1.3146774516  -1.1586329153
H  1.7615864562  1.2846363736  0.2952692245
H  -1.9933209622  0.8832604352  0.2952692245
H  -1.9933209622  -0.8832604352  0.2952692245
H  -1.5180587612  0.0000000000  -1.1586329153