7
charge=0, multiplicity=1, basis=def2-QZVPPD, AUX_BASIS_CORR=rimp2-def2-QZVPPD, SCF_ALGORITHM=GDM, xc_grid=000099000590, mem_total=3750, num_basis=357, num_pairs=63646, num_threads=1
C  0.6634979770  -0.0078564192  0.0000000000
N  -0.8403919522  -0.0170914365  0.0000000000
O  -1.3977688792  -0.0042529677  -1.0863860073
O  -1.3977688792  -0.0042529677  1.0863860073
H  1.0025026276  -0.5022439916  0.9046716210
H  0.9674264784  1.0379417744  0.0000000000
H  1.0025026276  -0.5022439916  -0.9046716210