11
charge=0, multiplicity=2, basis=def2-QZVPPD, AUX_BASIS_CORR=rimp2-def2-QZVPPD, SCF_ALGORITHM=GDM, xc_grid=000099000590, mem_total=3750, num_basis=483, num_pairs=114751, num_threads=1
C  -1.5911075558  0.1489106103  0.0000000000
C  -0.2665008629  -0.4920355888  0.0000000000
C  0.8917318462  0.1153162807  0.7546723378
C  0.8917318462  0.1153162807  -0.7546723378
H  -2.1186335240  0.3348600356  0.9283167218
H  -2.1186335240  0.3348600356  -0.9283167218
H  -0.2808714272  -1.5831979280  0.0000000000
H  1.5761143631  -0.5481149315  1.2685649558
H  0.7200272375  1.0611000684  1.2537660378
H  1.5761143631  -0.5481149315  -1.2685649558
H  0.7200272375  1.0611000684  -1.2537660378