7
charge=1, multiplicity=2, basis=def2-QZVPPD, AUX_BASIS_CORR=rimp2-def2-QZVPPD, SCF_ALGORITHM=GDM, xc_grid=000099000590, mem_total=3750, num_basis=304, num_pairs=46154, num_threads=1
C  -1.0846439548  0.0068733596  0.0001765641
P  0.6875706387  0.0056198370  -0.0010577087
H  -1.6229403160  -0.0145192524  -0.9385492031
H  1.2048886880  0.8125238385  1.0296544950
H  -1.6198737980  -0.0147687968  0.9409631705
H  1.2423858465  -1.2796038477  0.1913066092
H  1.1926128956  0.4838748619  -1.2224939269