5
charge=0, multiplicity=2, basis=def2-QZVPPD, AUX_BASIS_CORR=rimp2-def2-QZVPPD, SCF_ALGORITHM=GDM, xc_grid=000099000590, mem_total=3750, num_basis=228, num_pairs=26522, num_threads=1
C  -0.4263400079  0.0751332348  0.0000000000
O  0.9401140142  0.1871571718  0.0000000000
H  1.3667102696  -0.6787765922  0.0000000000
H  -0.9402421380  0.2082430928  -0.9455541172
H  -0.9402421380  0.2082430928  0.9455541172