9
charge=0, multiplicity=2, basis=def2-QZVPPD, AUX_BASIS_CORR=rimp2-def2-QZVPPD, SCF_ALGORITHM=GDM, xc_grid=000099000590, mem_total=3750, num_basis=453, num_pairs=97702, num_threads=1
N  -1.5657023377  0.1438836272  0.0000000000
C  -0.3903984093  -0.5318844807  0.0000000000
C  0.8196413089  0.2235172378  0.0000000000
O  0.8722196427  1.4489572688  0.0000000000
O  1.9441014846  -0.5566497375  0.0000000000
H  -2.4435167604  -0.3211683771  0.0000000000
H  -1.5317392605  1.1502657214  0.0000000000
H  -0.4006356516  -1.6103620690  0.0000000000
H  2.6960299833  0.0534408091  0.0000000000