7
charge=0, multiplicity=1, basis=def2-QZVPPD, mem_total=3750, AUX_BASIS_CORR=rimp2-def2-QZVPPD, SCF_ALGORITHM=GDM, xc_grid=000099000590, num_basis=351, num_pairs=60272, num_threads=1
N  -2.5154945274  -0.2228498450  0.0000000000
C  -1.4012860689  0.0778764973  0.0000000000
C  -0.0318230648  0.4782949727  0.0000000000
C  0.9812936953  -0.3874967221  0.0000000000
H  0.1438287285  1.5485837742  0.0000000000
H  0.8184506385  -1.4577359525  0.0000000000
H  2.0050305987  -0.0366727245  0.0000000000