6
charge=0, multiplicity=1, basis=def2-QZVPPD, AUX_BASIS_CORR=rimp2-def2-QZVPPD, SCF_ALGORITHM=GDM, xc_grid=000099000590, mem_total=3750, num_basis=274, num_pairs=37937, num_threads=1
C  -0.4648141481  0.1951110190  0.0000000000
S  1.3747605971  0.2511242142  0.0000000000
H  1.5779056667  -1.0842944052  0.0000000000
H  -0.7987842404  1.2313212727  0.0000000000
H  -0.8445339376  -0.2966310503  -0.8935902173
H  -0.8445339376  -0.2966310503  0.8935902173