8
charge=0, multiplicity=1, basis=def2-QZVPPD, AUX_BASIS_CORR=rimp2-def2-QZVPPD, SCF_ALGORITHM=GDM, xc_grid=000099000590, mem_total=3750, num_basis=462, num_pairs=103975, num_threads=1
C  0.0000000000  0.0000000000  0.8527803022
C  0.0000000000  0.0000000000  -0.6602152737
Cl  -0.8500071101  -1.4722555014  -1.2825571587
Cl  -0.8500071101  1.4722555014  -1.2825571587
Cl  1.7000142201  0.0000000000  -1.2825571587
H  0.5131360979  -0.8887777928  1.2183688159
H  0.5131360979  0.8887777928  1.2183688159
H  -1.0262721959  0.0000000000  1.2183688159