7
charge=0, multiplicity=2, basis=def2-QZVPPD, AUX_BASIS_CORR=rimp2-def2-QZVPPD, SCF_ALGORITHM=GDM, xc_grid=000099000590, mem_total=3750, num_basis=429, num_pairs=89844, num_threads=1
C  0.0534633038  -0.5010469807  0.0000000000
C  0.0289156923  0.9559679689  0.0000000000
Cl  -1.6869291082  -1.1394801242  0.0000000000
Cl  0.8772594861  -1.1364913951  -1.4781998086
Cl  0.8772594861  -1.1364913951  1.4781998086
H  -0.0752313133  1.4787308408  -0.9390355983
H  -0.0752313133  1.4787308408  0.9390355983