8
charge=0, multiplicity=1, basis=def2-QZVPPD, AUX_BASIS_CORR=rimp2-def2-QZVPPD, SCF_ALGORITHM=GDM, xc_grid=000099000590, mem_total=3750, num_basis=390, num_pairs=74002, num_threads=1
C  -1.0296689648  0.1245783644  0.0000000000
O  0.2618947433  0.7562568276  0.0000000000
C  1.3342183382  -0.0584422648  0.0000000000
O  2.4566687761  0.3497855166  0.0000000000
H  -1.7556552649  0.9329355070  0.0000000000
H  -1.1692048664  -0.4862765349  -0.8945054395
H  -1.1692048664  -0.4862765349  0.8945054395
H  1.0709521049  -1.1325608809  0.0000000000