9
charge=0, multiplicity=1, basis=def2-QZVPPD, AUX_BASIS_CORR=rimp2-def2-QZVPPD, SCF_ALGORITHM=GDM, xc_grid=000099000590, mem_total=3750, num_basis=390, num_pairs=75549, num_threads=1
C  -0.9424330692  -0.3909482361  0.0000000000
C  0.3277580053  0.4350435744  0.0000000000
O  1.4412779374  -0.4630724180  0.0000000000
H  2.2548789998  0.0522125397  0.0000000000
H  -1.8204126895  0.2594571521  0.0000000000
H  -0.9852010132  -1.0287896362  -0.8847982521
H  -0.9852010132  -1.0287896362  0.8847982521
H  0.3546664213  1.0824433302  0.8866016633
H  0.3546664213  1.0824433302  -0.8866016633