11
charge=0, multiplicity=1, basis=def2-QZVPPD, AUX_BASIS_CORR=rimp2-def2-QZVPPD, SCF_ALGORITHM=GDM, xc_grid=000099000590, mem_total=3750, num_basis=519, num_pairs=129202, num_threads=1
C  -1.4434772394  0.5176500352  0.0000000000
O  -0.2134799748  1.2493356908  0.0000000000
C  0.9916153459  0.6156179927  0.0000000000
O  1.9905644932  1.2817324494  0.0000000000
C  0.9948420097  -0.8984038656  0.0000000000
H  -2.2291577237  1.2695435199  0.0000000000
H  -1.5454795292  -0.1024536652  -0.8914354296
H  -1.5454795292  -0.1024536652  0.8914354296
H  0.4860996626  -1.2978350111  0.8777380832
H  2.0278528224  -1.2348984699  0.0000000000
H  0.4860996626  -1.2978350111  -0.8777380832