4
charge=0, multiplicity=2, basis=def2-QZVPPD, mem_total=3750, AUX_BASIS_CORR=rimp2-def2-QZVPPD, SCF_ALGORITHM=GDM, xc_grid=000099000590, num_basis=162, num_pairs=13492, num_threads=1
C  0.0000000000  0.0000000000  0.0000000000
H  0.5398798364  -0.9350993067  0.0000000000
H  0.5398798364  0.9350993067  0.0000000000
H  -1.0797596729  0.0000000000  0.0000000000