7
charge=0, multiplicity=2, basis=def2-QZVPPD, AUX_BASIS_CORR=rimp2-def2-QZVPPD, SCF_ALGORITHM=GDM, xc_grid=000099000590, mem_total=3750, num_basis=337, num_pairs=56729, num_threads=1
C  -0.7352845802  0.5321860923  0.0000000000
C  0.2708813185  -0.5153658982  0.0000000000
Cl  2.0118590631  0.2539359511  0.0000000000
H  -1.0459402416  0.9931589815  -0.9283664970
H  -1.0459402416  0.9931589815  0.9283664970
H  0.2722123409  -1.1285370541  -0.8960867292
H  0.2722123409  -1.1285370541  0.8960867292