10
charge=0, multiplicity=2, basis=def2-QZVPPD, AUX_BASIS_CORR=rimp2-def2-QZVPPD, SCF_ALGORITHM=GDM, xc_grid=000099000590, mem_total=3750, num_basis=486, num_pairs=113716, num_threads=1
C  -1.6075711940  0.5448216446  0.0000000000
O  -0.4429922865  1.2448154617  0.0000000000
C  0.8100289450  0.6656260233  0.0000000000
O  1.7598392394  1.3957993644  0.0000000000
C  0.8795906385  -0.8397038586  0.0000000000
H  -1.6155748646  -0.5322184534  0.0000000000
H  -2.4891161559  1.1619558647  0.0000000000
H  0.3894172860  -1.2564297277  0.8828164302
H  0.3894172860  -1.2564297277  -0.8828164302
H  1.9269611061  -1.1282365915  0.0000000000