10
charge=0, multiplicity=2, basis=def2-QZVPPD, AUX_BASIS_CORR=rimp2-def2-QZVPPD, SCF_ALGORITHM=GDM, xc_grid=000099000590, mem_total=3750, num_basis=502, num_pairs=121362, num_threads=1
C  -1.3586947433  -0.7157746942  -0.3590010234
S  -0.3611447882  0.5605286659  0.3284908159
C  1.3347523896  0.0629857764  -0.0776304760
H  -1.0217714878  -1.7418641184  -0.3129523966
H  -2.3859681815  -0.4503608875  -0.5637269408
O  -0.6656489531  1.8149341676  -0.3921566373
O  -0.5039177767  0.5050134405  1.8038921917
H  1.4444984128  0.0311285841  -1.1596631535
H  1.9735464258  0.8342306769  0.3505439035
H  1.5443487023  -0.9008216114  0.3822037165