8
charge=0, multiplicity=1, basis=def2-QZVPPD, AUX_BASIS_CORR=rimp2-def2-QZVPPD, SCF_ALGORITHM=GDM, xc_grid=000099000590, mem_total=3750, num_basis=384, num_pairs=72406, num_threads=1
N  -0.9431791280  -0.6396071634  -0.1492435602
C  0.0210128451  0.4550868594  -0.0520544269
C  1.3967419533  -0.0502636803  -0.0934369474
N  2.4801814795  -0.4382331800  -0.0939483632
H  -1.8856482242  -0.2732923327  -0.2071952468
H  -0.8887100601  -1.2497203149  0.6580116985
H  -0.1132123060  1.1168088424  -0.9117064360
H  -0.0671865597  1.0792209694  0.8495732820