6
charge=0, multiplicity=1, basis=def2-QZVPPD, AUX_BASIS_CORR=rimp2-def2-QZVPPD, SCF_ALGORITHM=GDM, xc_grid=000099000590, mem_total=3750, num_basis=288, num_pairs=41570, num_threads=1
C  0.0000000000  0.0000000000  -0.4885211412
C  0.0000000000  0.0000000000  0.9669725054
N  0.0000000000  0.0000000000  2.1179571651
H  -0.5119374205  -0.8867016225  -0.8654695098
H  -0.5119374205  0.8867016225  -0.8654695098
H  1.0238748409  0.0000000000  -0.8654695098