8
charge=0, multiplicity=2, basis=def2-QZVPPD, AUX_BASIS_CORR=rimp2-def2-QZVPPD, SCF_ALGORITHM=GDM, xc_grid=000099000590, mem_total=3750, num_basis=456, num_pairs=99882, num_threads=1
C  -1.3677896896  0.0534650277  0.0000000000
O  -0.1843487450  0.7609299340  0.0000000000
C  0.9764955208  0.0618952014  0.0000000000
H  -2.2407323426  0.6794112087  0.0000000000
H  -1.3501282157  -1.0233466882  0.0000000000
F  1.9804343572  0.9323195822  0.0000000000
F  1.0930345574  -0.7323371329  1.0828990495
F  1.0930345574  -0.7323371329  -1.0828990495