11
charge=0, multiplicity=1, basis=def2-QZVPPD, AUX_BASIS_CORR=rimp2-def2-QZVPPD, SCF_ALGORITHM=GDM, xc_grid=000099000590, mem_total=3750, num_basis=519, num_pairs=126175, num_threads=1
C  -1.7951887107  -0.4102461253  0.0000000000
C  -0.4921063697  0.3453541854  0.0000000000
O  0.5607339523  -0.5040768184  0.0000000000
O  -0.3750697188  1.5455314186  0.0000000000
C  1.8644535948  0.1060328285  0.0000000000
H  -2.6223100517  0.2950214000  0.0000000000
H  -1.8544460560  -1.0534802947  0.8797645049
H  -1.8544460560  -1.0534802947  -0.8797645049
H  2.5715907970  -0.7194345354  0.0000000000
H  1.9983943094  0.7243891180  0.8878629723
H  1.9983943094  0.7243891180  -0.8878629723