8
charge=0, multiplicity=2, basis=def2-QZVPPD, AUX_BASIS_CORR=rimp2-def2-QZVPPD, SCF_ALGORITHM=GDM, xc_grid=000099000590, mem_total=3750, num_basis=387, num_pairs=73082, num_threads=1
C  -1.2496232962  -0.0335883782  0.0000000000
N  0.0360764202  0.4568181984  0.0000000000
H  0.1783179156  1.4594045086  0.0000000000
C  1.1927115637  -0.2824321163  0.0000000000
H  -2.0675407512  0.6646372562  0.0000000000
H  -1.3977570103  -1.1006751793  0.0000000000
O  2.3053772197  0.2044238519  0.0000000000
H  1.0024379385  -1.3685881412  0.0000000000