12
charge=0, multiplicity=1, basis=def2-QZVPPD, AUX_BASIS_CORR=rimp2-def2-QZVPPD, SCF_ALGORITHM=GDM, xc_grid=000099000590, mem_total=3750, num_basis=576, num_pairs=158976, num_threads=1
C  1.2074010773  0.6970933370  0.0000000000
C  1.2074010773  -0.6970933370  0.0000000000
C  0.0000000000  -1.3941866740  0.0000000000
C  -1.2074010773  -0.6970933370  0.0000000000
C  -1.2074010773  0.6970933370  0.0000000000
C  0.0000000000  1.3941866740  0.0000000000
H  2.1438813464  1.2377704725  0.0000000000
H  2.1438813464  -1.2377704725  0.0000000000
H  0.0000000000  -2.4755409449  0.0000000000
H  -2.1438813464  -1.2377704725  0.0000000000
H  -2.1438813464  1.2377704725  0.0000000000
H  0.0000000000  2.4755409449  0.0000000000