30
charge=0, multiplicity=1, basis=def2-QZVPPD, AUX_BASIS_CORR=rimp2-def2-QZVPPD, SCF_ALGORITHM=GDM, xc_grid=000099000590, mem_total=60000, num_basis=1566, num_pairs=973866, num_threads=16
N  0.1758786067  2.6419258499  -0.7400802455
N  -1.7011352012  1.9530740634  0.2944261303
N  -1.5221324589  0.0673089776  2.6758168295
N  0.7823404141  0.1650094073  2.3576219183
N  1.8375553420  1.4592880562  0.6058921523
N  1.1720381518  -0.4128138061  -2.1122394043
N  -1.0991148676  -0.4033014810  -1.8063708807
H  -1.3422982846  -0.7243947966  3.2704306695
H  -2.3952970492  0.0562633766  2.1730344517
H  2.8026111971  0.3139271608  2.0114906434
H  0.7575846875  3.0648912716  -1.4447790102
H  2.3224548691  -1.6319929680  -0.8812063452
H  0.0723476741  -2.3405216813  1.6643004599
H  -0.2635920469  -3.6419568344  0.5296217137
H  1.4078218881  -3.1221920503  0.8170379377
H  -1.7628637827  3.2581162935  -1.3904192619
H  -2.0048292592  -0.0150863636  -2.0329050320
H  1.9819068044  -0.0409319567  -2.5797869858
C  0.2541748247  -1.7888648609  -0.3873858947
C  0.3787064775  -2.7828646387  0.7177941152
C  -0.5931485726  1.4065219067  0.8958630422
C  0.5917959715  1.8130720370  0.2720702328
C  1.8318126584  0.6423736808  1.6624745901
C  -1.0718943682  -1.2947259682  -0.7283077252
C  -0.4495596241  0.5265568281  1.9829067975
C  1.3096309183  -1.3185997967  -1.0893953746
C  -0.0349526713  0.1159094908  -2.5107049634
C  -1.1882802596  2.6808328247  -0.6854892987
O  -0.1432104053  0.9577865755  -3.3874376455
O  -2.1063516340  -1.6046105980  -0.1542736163