25
charge=0, multiplicity=1, basis=def2-QZVPPD, AUX_BASIS_CORR=rimp2-def2-QZVPPD, SCF_ALGORITHM=GDM, xc_grid=000099000590, mem_total=30000, num_basis=1248, num_pairs=566599, num_threads=8
O  -1.4786190404  -2.0191773024  -0.3842475121
N  -1.5452526914  0.2308431536  0.0022888250
N  1.3517649674  0.2306306590  -0.0328920877
N  1.3073156600  -2.0416442573  0.4028737824
C  -2.1989481566  1.3973655517  0.2168971054
C  -2.1583812199  -0.9970893206  -0.2068827473
C  -3.5966015528  -0.9385350679  -0.1926998473
C  -4.2667384258  0.2363272606  0.0191547290
C  2.0344235325  -0.9136850325  0.1511686775
C  3.4427627840  -0.9349496914  0.1375614715
C  4.1375940671  0.2402386493  -0.0695342022
C  3.4289748930  1.4281622176  -0.2619176713
C  2.0470172653  1.3619931086  -0.2344787632
C  -3.5642582218  1.4449719030  0.2331340144
H  -1.5739172833  2.2650707004  0.3715606572
H  -4.1211212693  -1.8681856137  -0.3548683177
H  -0.5075239493  0.2278730556  -0.0095874795
H  -5.3488037462  0.2374031385  0.0242006311
H  3.9649249684  -1.8694760364  0.2907471184
H  5.2189473083  0.2332612452  -0.0832762044
H  3.9300964256  2.3690922913  -0.4299466167
H  1.4529911051  2.2560448071  -0.3839979248
H  -4.0730319557  2.3794171865  0.4045002789
H  1.7884748791  -2.9146179589  0.2770973157
H  0.3279096566  -2.0413346467  0.1131447678