12
charge=0, multiplicity=1, basis=def2-QZVPPD, AUX_BASIS_CORR=rimp2-def2-QZVPPD, SCF_ALGORITHM=GDM, xc_grid=000099000590, mem_total=3750, num_basis=516, num_pairs=119858, num_threads=1
C  -0.4719251839  -0.4719251839  -1.8591117169
C  0.4719251839  0.4719251839  -1.8591117169
C  -0.4719251839  0.4719251839  1.8591117169
C  0.4719251839  -0.4719251839  1.8591117169
H  -0.8704643292  -0.8704643292  -2.7833089401
H  0.8704643292  0.8704643292  -2.7833089401
H  -0.8724222945  -0.8724222945  -0.9361253058
H  0.8724222945  0.8724222945  -0.9361253058
H  -0.8724222945  0.8724222945  0.9361253058
H  0.8724222945  -0.8724222945  0.9361253058
H  -0.8704643292  0.8704643292  2.7833089401
H  0.8704643292  -0.8704643292  2.7833089401