17
charge=0, multiplicity=1, basis=def2-QZVPPD, AUX_BASIS_CORR=rimp2-def2-QZVPPD, SCF_ALGORITHM=GDM, xc_grid=000099000590, mem_total=7500, num_basis=771, num_pairs=261198, num_threads=2
C  1.3932183001  0.0362913250  -1.0937679201
C  0.7280366476  -1.1884019122  -1.0937893095
C  -0.6651799407  -1.2247081034  -1.0937679201
C  -1.3932045697  -0.0362972756  -1.0937893095
C  -0.7280383594  1.1884167784  -1.0937679201
C  0.6651679221  1.2246991878  -1.0937893095
C  0.0000000000  0.0000000000  2.6221332345
H  1.2929592223  -2.1105416254  -1.0922276889
H  -1.1813232671  -2.1750088854  -1.0922116214
H  -2.4742622745  -0.0644647199  -1.0922276889
H  -1.2929513147  2.1105604021  -1.0922116214
H  1.1813030522  2.1750063453  -1.0922276889
H  2.4742745818  0.0644484833  -1.0922116214
H  0.5868777773  0.8381745080  2.9858911215
H  -1.0193193054  0.0891638100  2.9858911215
H  0.0000000000  0.0000000000  1.5361830203
H  0.4324415281  -0.9273383180  2.9858911215