12
charge=0, multiplicity=1, basis=def2-QZVPPD, AUX_BASIS_CORR=rimp2-def2-QZVPPD, SCF_ALGORITHM=GDM, xc_grid=000099000590, mem_total=3750, num_basis=576, num_pairs=158976, num_threads=1
C  -1.2077423439  -0.6972903674  0.0000000000
C  -1.2077423439  0.6972903674  0.0000000000
C  0.0000000000  1.3945807348  0.0000000000
C  1.2077423439  0.6972903674  0.0000000000
C  1.2077423439  -0.6972903674  0.0000000000
C  0.0000000000  -1.3945807348  0.0000000000
H  -2.1440709011  1.2378799119  0.0000000000
H  0.0000000000  2.4757598238  0.0000000000
H  2.1440709011  1.2378799119  0.0000000000
H  2.1440709011  -1.2378799119  0.0000000000
H  0.0000000000  -2.4757598238  0.0000000000
H  -2.1440709011  -1.2378799119  0.0000000000