12
charge=0, multiplicity=1, basis=def2-QZVPPD, AUX_BASIS_CORR=rimp2-def2-QZVPPD, SCF_ALGORITHM=GDM, xc_grid=000099000590, mem_total=3750, num_basis=576, num_pairs=158976, num_threads=1
C  -1.2072947136  -0.6970319279  0.0000000000
C  -1.2072947136  0.6970319279  0.0000000000
C  0.0000000000  1.3940638558  0.0000000000
C  1.2072947136  0.6970319279  0.0000000000
C  1.2072947136  -0.6970319279  0.0000000000
C  0.0000000000  -1.3940638558  0.0000000000
H  -2.1437595589  -1.2377001584  0.0000000000
H  -2.1437595589  1.2377001584  0.0000000000
H  0.0000000000  2.4754003169  0.0000000000
H  2.1437595589  1.2377001584  0.0000000000
H  2.1437595589  -1.2377001584  0.0000000000
H  0.0000000000  -2.4754003169  0.0000000000