15
charge=0, multiplicity=1, basis=def2-QZVPPD, mem_total=7500, AUX_BASIS_CORR=rimp2-def2-QZVPPD, SCF_ALGORITHM=GDM, xc_grid=000099000590, num_basis=735, num_pairs=242643, num_threads=2
C  -0.7141469357  -0.6596575594  1.2077022478
C  -1.4109070399  -0.6345874279  0.0000000000
C  -0.7141469357  -0.6596575594  -1.2077022478
C  0.6795927377  -0.7097450851  -1.2078656323
C  1.3766058672  -0.7347868293  0.0000000000
C  0.6795927377  -0.7097450851  1.2078656323
C  0.0708237384  2.7014705490  0.0000000000
H  -2.4912930949  -0.5929405129  0.0000000000
H  -1.2543212907  -0.6378625630  -2.1440513715
H  1.2199160313  -0.7273098722  -2.1442570216
H  2.4572168756  -0.7722164039  0.0000000000
H  1.2199160313  -0.7273098722  2.1442570216
H  -1.2543212907  -0.6378625630  2.1440513715
H  0.1432569580  1.6360510248  0.0000000000
N  -0.0077843897  3.8661597597  0.0000000000