15
charge=0, multiplicity=1, basis=def2-QZVPPD, AUX_BASIS_CORR=rimp2-def2-QZVPPD, SCF_ALGORITHM=GDM, xc_grid=000099000590, mem_total=7500, num_basis=771, num_pairs=263500, num_threads=2
N  -0.3423088292  1.7635529500  0.0000000000
N  1.6533263541  0.6112284056  0.0000000000
C  -0.4128747354  -0.6192576420  0.0000000000
C  1.0428006906  -0.6294589242  0.0000000000
C  -1.0348516631  0.5807225007  0.0000000000
C  1.0393381050  1.8435514329  0.0000000000
C  -1.1317840998  -1.9269131304  0.0000000000
O  1.7114915873  -1.6648593621  0.0000000000
O  1.6372622039  2.9047815376  0.0000000000
H  -0.8228865029  2.6476651586  0.0000000000
H  2.6952017056  0.6258597087  0.0000000000
H  -2.1121454648  0.6696899884  0.0000000000
H  -0.8564744304  -2.5143457315  -0.8747715582
H  -0.8564744304  -2.5143457315  0.8747715582
H  -2.2096204905  -1.7778711608  0.0000000000