13
charge=0, multiplicity=1, basis=def2-QZVPPD, AUX_BASIS_CORR=rimp2-def2-QZVPPD, SCF_ALGORITHM=GDM, xc_grid=000099000590, mem_total=7500, num_basis=639, num_pairs=188722, num_threads=2
N  -1.2969425336  0.4303448625  -0.0233959080
N  -1.3413918409  -1.8419300538  0.4123699621
C  0.7940552830  -0.7352354880  0.1470576512
C  1.4888865661  0.4399528528  -0.0600380224
C  0.7802673920  1.6278764211  -0.2524214915
C  -0.6016902356  1.5617073121  -0.2249825834
C  -0.6142839684  -0.7139708290  0.1606648572
H  2.5702398074  0.4329754486  -0.0737800246
H  1.2813889247  2.5688064948  -0.4204504369
H  -1.1957163958  2.4557590105  -0.3745017451
H  1.3162174675  -1.6697618329  0.3002432982
H  -0.8602326219  -2.7149037554  0.2865934955
H  -2.3207978444  -1.8416204432  0.1226409476