10
charge=0, multiplicity=1, basis=def2-QZVPPD, AUX_BASIS_CORR=rimp2-def2-QZVPPD, SCF_ALGORITHM=GDM, xc_grid=000099000590, mem_total=3750, num_basis=510, num_pairs=126320, num_threads=1
C  -1.1306496967  0.6961383700  0.0000000000
C  -1.1306496967  -0.6961383700  0.0000000000
C  1.1306496967  -0.6961383700  0.0000000000
C  1.1306496967  0.6961383700  0.0000000000
N  0.0000000000  -1.4144787252  0.0000000000
N  0.0000000000  1.4144787252  0.0000000000
H  -2.0624800464  1.2472789471  0.0000000000
H  -2.0624800464  -1.2472789471  0.0000000000
H  2.0624800464  -1.2472789471  0.0000000000
H  2.0624800464  1.2472789471  0.0000000000