4
charge=0, multiplicity=1, basis=def2-QZVPPD, AUX_BASIS_CORR=rimp2-def2-QZVPPD, SCF_ALGORITHM=GDM, xc_grid=000099000590, mem_total=3750, num_basis=162, num_pairs=13492, num_threads=1
N  0.0000000000  0.0000000000  -0.2885330377
H  -0.4680670156  0.8107158524  0.0961776792
H  -0.4680670156  -0.8107158524  0.0961776792
H  0.9361340313  0.0000000000  0.0961776792