30
charge=0, multiplicity=1, basis=def2-QZVPPD, AUX_BASIS_CORR=rimp2-def2-QZVPPD, SCF_ALGORITHM=GDM, xc_grid=000099000590, mem_total=60000, num_basis=1566, num_pairs=807597, num_threads=16
N  1.2812035072  -0.0337039014  -0.5937394434
N  3.1993396964  0.0200793170  -2.0558079616
N  4.4347715222  -0.0111666939  1.3141314322
N  5.2756764293  0.0355166213  -0.7715753109
N  1.4178057469  -0.0822604164  1.7242920460
N  -3.5749866138  -0.0066883922  -1.7312141790
N  -1.5794614011  -0.0167830956  -0.5787426328
C  5.5291816504  0.0196733178  0.5723701721
C  3.9107998694  0.0138208148  -0.9208351232
C  2.0201521557  -0.0415004027  0.5275841917
C  1.8952642740  -0.0044668914  -1.7956491406
C  -4.2674972052  0.0111813143  -0.5484998342
C  -3.6455523446  0.0162110159  0.6514864039
C  -2.1899497864  0.0017413107  0.6618249881
C  3.4209842964  -0.0151717951  0.3846086923
C  -2.1934029413  -0.0206711968  -1.8110839985
C  -4.3644272752  0.0356135244  1.9590168737
H  5.9497267096  0.0591517324  -1.5185292353
H  0.4048792234  -0.0481003073  1.7890710614
H  1.9905679420  -0.0404633050  2.5470690886
H  1.2256314960  -0.0006977899  -2.6464195736
H  6.5344491596  0.0318304226  0.9590350760
H  -4.0555312798  -0.0093315931  -2.6153409274
H  -0.5376381408  -0.0273405989  -0.5932747436
H  -5.3447361834  0.0212109187  -0.6375661546
H  -4.0977422816  -0.8359813873  2.5547187666
H  -4.0805196559  0.9128943216  2.5381789495
H  -5.4422112891  0.0448292261  1.8098810823
O  -1.5212860239  0.0054855121  1.6972363189
O  -1.5954912564  -0.0349116027  -2.8722268844