28
charge=0, multiplicity=1, basis=def2-QZVPPD, AUX_BASIS_CORR=rimp2-def2-QZVPPD, SCF_ALGORITHM=GDM, xc_grid=000099000590, mem_total=60000, num_basis=1374, num_pairs=774650, num_threads=16
C  0.0206355823  1.5088931570  -1.2701612812
C  -1.2329700363  0.9511344593  -1.5136365825
C  -1.3365962239  -0.2486670408  -2.2146425405
C  -0.1872328956  -0.8893744424  -2.6750216400
C  1.0664983485  -0.3264860685  -2.4374683037
C  1.1707097557  0.8737101724  -1.7362098882
C  -1.9803582861  0.4028852795  1.9951292259
C  -0.7732323001  1.0510768612  2.2004727144
C  0.4121385263  0.4263164872  1.7785201508
C  1.7925723563  0.7809248976  1.8131747111
C  2.4868464917  -0.2540431500  1.2291054209
C  0.3278313019  -0.8499177637  1.1556492341
C  -0.8867572584  -1.5082815486  0.9544676993
C  -2.0375758133  -0.8647359868  1.3814184428
H  -2.1233910647  1.4424837025  -1.1467943269
H  -0.7434433826  2.0214131288  2.6793832824
H  -2.3092646642  -0.6845812886  -2.3988969296
H  -0.2686322217  -1.8185456847  -3.2234979496
H  2.2287213354  1.6768598082  2.2213647430
H  1.9582951507  -0.8170536206  -2.8056215470
H  2.1417452336  1.3097073111  -1.5462688330
H  -2.9000559362  0.8724148293  2.3176798814
H  -0.9312105399  -2.4784544316  0.4771751432
H  0.1017838111  2.4335946645  -0.7156222687
H  -2.9972888038  -1.3433539765  1.2406141287
H  1.8492845900  -2.0596658511  0.3270775907
H  3.5445903478  -0.3715033738  1.0632973385
N  1.6063565954  -1.2367505310  0.8493123835