8
charge=0, multiplicity=1, basis=def2-QZVPPD, AUX_BASIS_CORR=rimp2-def2-QZVPPD, SCF_ALGORITHM=GDM, xc_grid=000099000590, mem_total=3750, num_basis=324, num_pairs=48697, num_threads=1
N  -1.5787185690  -0.0466110184  0.0000000000
N  1.5787185690  0.0466110184  0.0000000000
H  -2.1586217421  0.1363960534  0.8095652872
H  -0.8494713050  0.6581932089  0.0000000000
H  -2.1586217421  0.1363960534  -0.8095652872
H  2.1586217421  -0.1363960534  -0.8095652872
H  0.8494713050  -0.6581932089  0.0000000000
H  2.1586217421  -0.1363960534  0.8095652872