24
charge=0, multiplicity=1, basis=def2-QZVPPD, AUX_BASIS_CORR=rimp2-def2-QZVPPD, SCF_ALGORITHM=GDM, xc_grid=000099000590, mem_total=30000, num_basis=1152, num_pairs=555102, num_threads=8
C  -1.0478255929  -1.4216740815  0.0000000000
C  -1.4545039074  -0.8554461965  1.2062052919
C  -1.4545039074  -0.8554461965  -1.2062052919
C  -2.2667977169  0.2771610984  1.2069543376
C  -2.6714789548  0.8450213781  0.0000000000
C  -2.2667977169  0.2771610984  -1.2069543376
C  1.0478255929  1.4216740815  0.0000000000
C  1.4545039074  0.8554461965  -1.2062052919
C  1.4545039074  0.8554461965  1.2062052919
C  2.2667977169  -0.2771610984  -1.2069543376
C  2.6714789548  -0.8450213781  0.0000000000
C  2.2667977169  -0.2771610984  1.2069543376
H  -1.1338538119  -1.2920597808  -2.1423158363
H  -2.5824953045  0.7163068280  -2.1437985355
H  -3.3030434444  1.7232706349  0.0000000000
H  -2.5824953045  0.7163068280  2.1437985355
H  -1.1338538119  -1.2920597808  2.1423158363
H  -0.4060254387  -2.2919056980  0.0000000000
H  0.4060254387  2.2919056980  0.0000000000
H  1.1338538119  1.2920597808  2.1423158363
H  2.5824953045  -0.7163068280  2.1437985355
H  3.3030434444  -1.7232706349  0.0000000000
H  2.5824953045  -0.7163068280  -2.1437985355
H  1.1338538119  1.2920597808  -2.1423158363