26
charge=0, multiplicity=1, basis=def2-QZVPPD, AUX_BASIS_CORR=rimp2-def2-QZVPPD, SCF_ALGORITHM=GDM, xc_grid=000099000590, mem_total=30000, num_basis=1284, num_pairs=608927, num_threads=8
C  -2.0486188155  0.9485311386  -0.1441194374
C  -1.5045937575  0.0327729017  0.7592247740
C  -2.1890921969  -1.1448249670  1.0525995510
C  -3.4158344872  -1.4184582835  0.4538180799
C  -3.9558864615  -0.4991697888  -0.4448714377
C  -3.2785631909  0.6776460262  -0.7453813575
C  1.9954629596  0.9711895499  0.1137806551
C  1.5488906761  0.2543709781  -0.9931841419
C  2.2002249505  -0.9222919083  -1.3485800156
C  3.2900560213  -1.3818759115  -0.6106323026
C  3.7281726804  -0.6550054198  0.4928756019
C  3.0809722248  0.5230348648  0.8602809035
H  -3.6846799420  1.3981199176  -1.4415280441
H  -0.5653247497  2.1493375484  -0.0422294049
H  1.7427727688  2.5334353590  1.1939429711
H  -0.5521636498  0.2413418752  1.2284882719
H  -1.7566266251  -1.8474609858  1.7520738576
H  -3.9439802055  -2.3327025480  0.6840264283
H  -4.9085870369  -0.6976092385  -0.9169007083
H  0.7030390016  0.6214834019  -1.5576273501
H  1.8506344648  -1.4802883022  -2.2059535822
H  3.7915116407  -2.2964695287  -0.8924354151
H  4.5722521686  -1.0003255123  1.0734953646
H  3.4183740957  1.0877228660  1.7211810535
O  -1.4300173456  2.1145378976  -0.4788892713
O  1.3116048111  2.1229580694  0.4365449564