16
charge=0, multiplicity=1, basis=def2-QZVPPD, mem_total=7500, AUX_BASIS_CORR=rimp2-def2-QZVPPD, SCF_ALGORITHM=GDM, xc_grid=000099000590, num_basis=798, num_pairs=285486, num_threads=2
C  1.4745971505  -1.9389342717  0.0000000000
C  0.1008333219  -2.0310617186  0.0000000000
C  -0.4025231098  -0.6966948608  0.0000000000
C  0.7266437730  0.1699771505  0.0000000000
C  0.6011086613  1.5621557425  0.0000000000
C  -0.6819415015  2.0870341480  0.0000000000
C  -1.8147428393  1.2478678040  0.0000000000
C  -1.6891085613  -0.1313325671  0.0000000000
H  2.7972342897  -0.2854983006  0.0000000000
H  2.2217120150  -2.7149299604  0.0000000000
H  -0.4678673474  -2.9452179194  0.0000000000
H  1.4718360459  2.2043412382  0.0000000000
H  -0.8170485516  3.1601753907  0.0000000000
H  -2.7998914632  1.6943261600  0.0000000000
H  -2.5673105691  -0.7639035120  0.0000000000
N  1.8464686859  -0.6183045233  0.0000000000