3
charge=0, multiplicity=1, basis=def2-QZVPPD, AUX_BASIS_CORR=rimp2-def2-QZVPPD, SCF_ALGORITHM=GDM, xc_grid=000099000590, mem_total=3750, num_basis=132, num_pairs=9017, num_threads=1
H  -0.7508114209  0.0000000000  0.1988791352
H  0.7508114209  0.0000000000  0.1988791352
O  0.0000000000  0.0000000000  -0.3977582704