10
charge=0, multiplicity=1, basis=def2-QZVPPD, AUX_BASIS_CORR=rimp2-def2-QZVPPD, SCF_ALGORITHM=GDM, xc_grid=000099000590, mem_total=3750, num_basis=450, num_pairs=86679, num_threads=1
C  0.0000000000  -0.6675782329  -1.7677561517
C  0.0000000000  0.6675782329  -1.7677561517
C  0.0000000000  0.0000000000  3.2574075488
C  0.0000000000  0.0000000000  2.0501441053
H  -0.9236213399  1.2322534598  -1.7692822519
H  0.9236213399  1.2322534598  -1.7692822519
H  0.9236213399  -1.2322534598  -1.7692822519
H  -0.9236213399  -1.2322534598  -1.7692822519
H  0.0000000000  0.0000000000  0.9842557494
H  0.0000000000  0.0000000000  4.3208339074