15
charge=0, multiplicity=1, basis=def2-QZVPPD, AUX_BASIS_CORR=rimp2-def2-QZVPPD, SCF_ALGORITHM=GDM, xc_grid=000099000590, mem_total=7500, num_basis=771, num_pairs=263475, num_threads=2
N  1.0270290614  -0.2173067161  -1.4554563321
N  -1.2441239581  0.0057012207  -1.2459008546
H  2.1774457785  -0.2089247449  0.2771053444
H  -0.0726614162  1.0900149204  2.5780559258
H  -0.4086011370  -0.6325777373  2.6959705120
H  1.2628127976  -0.0618145730  2.5316752692
H  -2.1498383497  0.1200269279  -1.6805942313
H  1.8368977139  -0.2849526038  -2.0490225755
C  0.1091657344  0.0293338650  0.7372143127
C  0.2336973874  0.1079501612  2.2215585759
C  -1.2169034588  0.1376746886  0.1467372130
C  1.1646218281  -0.1345341830  -0.0917089663
C  -0.1799617615  -0.1252005865  -2.1110778601
O  -0.2882194958  -0.1498472158  -3.3263184801
O  -2.2513607244  0.3244565766  0.7717621469