12
charge=0, multiplicity=1, basis=def2-QZVPPD, AUX_BASIS_CORR=rimp2-def2-QZVPPD, SCF_ALGORITHM=GDM, xc_grid=000099000590, mem_total=3750, num_basis=576, num_pairs=158976, num_threads=1
C  -1.2071955173  -0.6969746569  0.0000000000
C  -1.2071955173  0.6969746569  0.0000000000
C  0.0000000000  -1.3939493138  0.0000000000
C  0.0000000000  1.3939493138  0.0000000000
C  1.2071955173  0.6969746569  0.0000000000
C  1.2071955173  -0.6969746569  0.0000000000
H  0.0000000000  -2.4744330683  0.0000000000
H  2.1429218971  -1.2372165342  0.0000000000
H  2.1429218971  1.2372165342  0.0000000000
H  0.0000000000  2.4744330683  0.0000000000
H  -2.1429218971  1.2372165342  0.0000000000
H  -2.1429218971  -1.2372165342  0.0000000000