24
charge=0, multiplicity=1, basis=def2-QZVPPD, AUX_BASIS_CORR=rimp2-def2-QZVPPD, SCF_ALGORITHM=GDM, xc_grid=000099000590, mem_total=30000, num_basis=1152, num_pairs=510146, num_threads=8
C  0.0000000000  0.0000000000  1.0587282635
C  0.0000000000  -1.2060088519  1.7573674794
C  0.0000000000  -1.2071771462  3.1512842264
C  0.0000000000  0.0000000000  3.8482691578
C  0.0000000000  1.2071771462  3.1512842264
C  0.0000000000  1.2060088519  1.7573674794
C  -1.3940638562  0.0000000000  -2.4544606616
C  -0.6970470680  1.2072382104  -2.4549360539
C  0.6970470680  1.2072382104  -2.4549360539
C  1.3940638562  0.0000000000  -2.4544606616
C  0.6970470680  -1.2072382104  -2.4549360539
C  -0.6970470680  -1.2072382104  -2.4549360539
H  0.0000000000  0.0000000000  -0.0218879099
H  0.0000000000  -2.1416395882  1.2141146816
H  0.0000000000  -2.1435663906  3.6926892015
H  0.0000000000  0.0000000000  4.9298444506
H  0.0000000000  2.1435663906  3.6926892015
H  0.0000000000  2.1416395882  1.2141146816
H  -2.4754003174  0.0000000000  -2.4506302713
H  -1.2382325779  2.1435663906  -2.4539847646
H  1.2382325779  2.1435663906  -2.4539847646
H  2.4754003174  0.0000000000  -2.4506302713
H  1.2382325779  -2.1435663906  -2.4539847646
H  -1.2382325779  -2.1435663906  -2.4539847646