15
charge=0, multiplicity=1, basis=def2-QZVPPD, AUX_BASIS_CORR=rimp2-def2-QZVPPD, SCF_ALGORITHM=GDM, xc_grid=000099000590, mem_total=7500, num_basis=708, num_pairs=229041, num_threads=2
C  0.7650202737  -0.5733361371  -1.2075430267
C  0.4628123845  0.7875924460  -1.2079044914
C  0.3120676336  1.4684093707  0.0000000000
C  0.4628123845  0.7875924460  1.2079044914
C  0.7650202737  -0.5733361371  1.2075430267
C  0.9165596477  -1.2534103243  0.0000000000
H  0.8810774405  -1.1010539014  -2.1441490238
H  0.3417979471  1.3147611373  -2.1440554088
H  0.0762676377  2.5236931220  0.0000000000
H  0.3417979471  1.3147611373  2.1440554088
H  0.8810774405  -1.1010539014  2.1441490238
H  1.1534151615  -2.3086159791  0.0000000000
H  -2.6385039216  -1.1825319549  0.0000000000
H  -1.9171026493  0.1344626052  0.0000000000
O  -2.8041196013  -0.2379339292  0.0000000000