24
charge=0, multiplicity=1, basis=def2-QZVPPD, AUX_BASIS_CORR=rimp2-def2-QZVPPD, SCF_ALGORITHM=GDM, xc_grid=000099000590, mem_total=30000, num_basis=1284, num_pairs=575689, num_threads=8
O  -1.4663320668  1.0121696555  0.0000000000
O  -0.5972231356  5.4864088012  0.0000000000
O  1.4663320668  -1.0121696555  0.0000000000
O  0.5972231356  -5.4864088012  0.0000000000
C  1.2769040014  4.0061776914  0.0000000000
C  -0.1286005436  4.3621564505  0.0000000000
C  -0.6281465981  1.9142684538  0.0000000000
C  0.6281465981  -1.9142684538  0.0000000000
C  -1.6367295523  -2.7052774809  0.0000000000
C  -1.2769040014  -4.0061776914  0.0000000000
C  0.1286005436  -4.3621564505  0.0000000000
C  1.6367295523  2.7052774809  0.0000000000
N  0.7205095332  1.6882693713  0.0000000000
N  -0.9777233317  3.2396444293  0.0000000000
N  -0.7205095332  -1.6882693713  0.0000000000
N  0.9777233317  -3.2396444293  0.0000000000
H  1.0232518603  0.7061822208  0.0000000000
H  -1.9700275057  3.4323862365  0.0000000000
H  2.0103510688  4.7938661637  0.0000000000
H  2.6690628818  2.3883424602  0.0000000000
H  -2.0103510688  -4.7938661637  0.0000000000
H  -1.0232518603  -0.7061822208  0.0000000000
H  1.9700275057  -3.4323862365  0.0000000000
H  -2.6690628818  -2.3883424602  0.0000000000