12
charge=0, multiplicity=1, basis=def2-QZVPPD, AUX_BASIS_CORR=rimp2-def2-QZVPPD, SCF_ALGORITHM=GDM, xc_grid=000099000590, mem_total=3750, num_basis=576, num_pairs=158976, num_threads=1
C  1.2069717244  0.6968454500  0.0000000000
C  1.2069717244  -0.6968454500  0.0000000000
C  0.0000000000  -1.3936908999  0.0000000000
C  -1.2069717244  -0.6968454500  0.0000000000
C  -1.2069717244  0.6968454500  0.0000000000
C  0.0000000000  1.3936908999  0.0000000000
H  2.1434990962  -1.2375497802  0.0000000000
H  0.0000000000  -2.4750995604  0.0000000000
H  -2.1434990962  -1.2375497802  0.0000000000
H  -2.1434990962  1.2375497802  0.0000000000
H  0.0000000000  2.4750995604  0.0000000000
H  2.1434990962  1.2375497802  0.0000000000