26
charge=0, multiplicity=1, basis=def2-QZVPPD, AUX_BASIS_CORR=rimp2-def2-QZVPPD, SCF_ALGORITHM=GDM, xc_grid=000099000590, mem_total=30000, num_basis=1233, num_pairs=609847, num_threads=8
C  2.7938398102  -0.4341974619  -0.6265426542
C  1.5708748095  0.1613785384  0.0792073461
C  0.2474668079  -0.3310334619  -0.5081806545
C  -1.0451641935  0.2844995387  0.0580333461
C  -2.0668111945  -0.8124474624  -0.2584686540
O  -3.2057491956  -0.8290954622  0.5883913467
C  -1.2607901935  -2.0999114638  -0.0701776540
O  3.9982488117  0.0668875386  -0.0625206540
O  -1.4548741936  1.5013115400  -0.5443786543
O  1.6429928096  -0.1156164615  1.4817043478
O  0.1305408079  -1.7313914635  -0.1875896542
C  -1.0751341935  2.6894295410  0.1445483462
H  2.7989968102  -0.1464314618  -1.6830556556
H  2.7561098105  -1.5320314630  -0.5692846546
H  1.6232668095  1.2516725395  -0.0108296540
H  0.2590638078  -0.1855004615  -1.6003746553
H  -0.9621331932  0.3989635389  1.1478043475
H  -2.3753971946  -0.6897864621  -1.3065946553
H  -3.7449591959  -0.0526774615  0.3856773467
H  -1.4933301938  -2.8635934642  -0.8192456547
H  -1.4401621940  -2.5130974642  0.9284343471
H  3.9129198116  -0.0151894614  0.8993093473
H  1.3563588090  -1.0368594626  1.5925973477
H  -1.4310661938  2.6756095411  1.1837503473
H  0.0115248075  2.8402035414  0.1444613462
H  -1.5466331936  3.5189045418  -0.3866756541