26
charge=0, multiplicity=1, basis=def2-QZVPPD, AUX_BASIS_CORR=rimp2-def2-QZVPPD, SCF_ALGORITHM=GDM, xc_grid=000099000590, mem_total=30000, num_basis=1233, num_pairs=624725, num_threads=8
C  2.3286718100  -0.0803773463  0.8537748854
C  1.2546838089  -1.0333633473  0.3312788850
C  0.1849338080  -0.3480363466  -0.5313231160
C  -0.8619501931  0.4816006545  0.2512848848
C  -2.1067311943  -0.4315083467  0.2672458851
O  -2.0573031944  -1.3718963473  1.3413528859
C  -1.9551051942  -1.1974983473  -1.0387751163
O  3.0364938107  0.5649096543  -0.1985961154
O  -1.2262841935  1.6792626556  -0.4192291159
O  1.9502668098  -2.0061633480  -0.4517771157
O  -0.5464351928  -1.3944913475  -1.2095261167
C  -0.2684411925  2.7265596563  -0.3083141160
H  1.8843798094  0.7121466546  1.4635458861
H  3.0158578104  -0.6534033466  1.4923218861
H  0.7612908082  -1.5224903475  1.1851178858
H  0.6716978085  0.2767506544  -1.2880151166
H  -0.5303001927  0.7113896544  1.2759128858
H  -3.0232911953  0.1683496538  0.2994058847
H  -2.2511441947  -0.9160113469  2.1707258868
H  -2.4393121948  -2.1761903482  -1.0064801162
H  -2.3577631946  -0.6072653470  -1.8728251175
H  3.3475238111  -0.1346553461  -0.7926481160
H  1.2811908090  -2.4871373488  -0.9631901162
H  -0.1310781925  3.0206426569  0.7431778855
H  0.7059078084  2.4439426561  -0.7270571162
H  -0.6677591929  3.5749336574  -0.8673891165