26
charge=0, multiplicity=1, basis=def2-QZVPPD, AUX_BASIS_CORR=rimp2-def2-QZVPPD, SCF_ALGORITHM=GDM, xc_grid=000099000590, mem_total=30000, num_basis=1233, num_pairs=612079, num_threads=8
C  2.8131726951  -0.3644259236  0.6005948083
C  1.5466866937  -0.5278369234  -0.2319251928
C  0.2764646925  -0.3301779235  0.5944288085
C  -1.0229633086  -0.2991439236  -0.2467531928
C  -1.4351813089  1.1951280783  -0.2045791927
O  -0.8760423086  1.9360420787  -1.2765721934
C  -0.8959283086  1.6131470783  1.1633038087
O  3.9096046961  -0.4985359235  -0.3180921926
O  -1.9700843097  -1.1466759244  0.3978108082
O  1.5518396937  0.4113030772  -1.3124591936
O  0.3535386926  0.9196340780  1.2967188088
C  -3.0802683108  -1.4988979243  -0.4160951926
H  2.8139596949  0.6228800775  1.0739098087
H  2.8558536951  -1.1423239241  1.3749738092
H  1.5275226936  -1.5492169248  -0.6441021929
H  0.1955946923  -1.1557569240  1.3150708091
H  -0.8618443084  -0.6278299235  -1.2815761935
H  -2.5192373103  1.3169930785  -0.2730601925
H  0.0569576923  1.6731750784  -1.3805591937
H  -0.6967223082  2.6852090794  1.2278588091
H  -1.5856323090  1.3112280781  1.9651218099
H  4.7180066968  -0.1697039231  0.0932218078
H  2.4565496947  0.4402740774  -1.6600421940
H  -3.6760773110  -0.6234679239  -0.7084041931
H  -2.7517703101  -2.0209019249  -1.3268981939
H  -3.7040003112  -2.1701179254  0.1781048077