26
charge=0, multiplicity=1, basis=def2-QZVPPD, AUX_BASIS_CORR=rimp2-def2-QZVPPD, SCF_ALGORITHM=GDM, xc_grid=000099000590, mem_total=30000, num_basis=1233, num_pairs=618263, num_threads=8
C  2.3597936562  0.6304008467  0.2901281927
C  1.4826196553  -0.5848911543  0.0006581921
C  0.1294426537  -0.2272011542  -0.6270498085
C  -0.9167093471  0.3653388467  0.3519441929
C  -1.8465623478  -0.8227901548  0.6427321930
O  -1.2627303475  -1.5350431556  1.7338471940
C  -1.7881183482  -1.5903611555  -0.6756968084
O  3.6130466576  0.2472128463  0.8363981933
O  -1.7089813480  1.3820778473  -0.2470098078
O  2.2400216562  -1.3927251552  -0.9058158085
O  -0.4411833468  -1.4551251553  -1.1371708090
C  -1.0845733475  2.6565378487  -0.2984358080
H  2.4996176564  1.2016438473  -0.6414518081
H  1.8871466558  1.2828648476  1.0303341932
H  1.3070716552  -1.1404531550  0.9326701931
H  0.2810866543  0.4516268467  -1.4767918090
H  -0.4654283465  0.7284168470  1.2848831934
H  -2.8557563487  -0.4717681543  0.8874411930
H  -1.7506093477  -2.3559691562  1.8790241941
H  -2.0070293483  -2.6585341563  -0.5738298080
H  -2.4874813484  -1.1475901548  -1.3991838093
H  3.9634996576  -0.4553091543  0.2687051926
H  1.6602926555  -2.1087761558  -1.2051658087
H  -0.8214603470  3.0082778491  0.7099331929
H  -0.1782403461  2.6488878486  -0.9201608084
H  -1.8087753478  3.3432508493  -0.7409368087