26
charge=0, multiplicity=1, basis=def2-QZVPPD, AUX_BASIS_CORR=rimp2-def2-QZVPPD, SCF_ALGORITHM=GDM, xc_grid=000099000590, mem_total=30000, num_basis=1233, num_pairs=620046, num_threads=8
C  2.6768532332  0.7721070391  0.0321710771
C  1.9373552327  -0.5397369621  0.3239250770
C  0.6156662312  -0.6871219622  -0.4449019237
C  -0.5670737700  0.1661290386  0.0464480771
C  -1.7734497710  -0.7494219621  -0.1957849232
O  -2.8568387720  -0.3845239620  0.6539210774
C  -1.1767367704  -2.1272329637  0.1153750770
O  1.9901692325  1.9252830404  0.4992410773
O  -0.5737307695  1.3977330400  -0.6642389236
O  2.8282772337  -1.5812329630  -0.0641069231
O  0.1829262308  -2.0644969635  -0.3288239233
C  -1.5133777706  2.3648640410  -0.1779789232
H  2.8836622337  0.8327830390  -1.0464859242
H  3.6375672346  0.7402160394  0.5520490773
H  1.7252182327  -0.5998779623  1.4037910784
H  0.7938852317  -0.4776069619  -1.5090419245
H  -0.4951187698  0.3627500388  1.1274980782
H  -2.0650537714  -0.6766889623  -1.2530739244
H  -3.6385337727  -0.9021869623  0.4206390774
H  -1.6701897707  -2.9507649643  -0.4110769235
H  -1.2276637707  -2.3136449637  1.1975760783
H  1.1895452319  2.0356290404  -0.0410619233
H  2.3259152332  -2.4094269639  -0.0491729230
H  -2.5427597719  2.0170230402  -0.3029659237
H  -1.3352187703  2.5804860409  0.8837240777
H  -1.3512947708  3.2689620416  -0.7676439237