26
charge=0, multiplicity=1, basis=def2-QZVPPD, AUX_BASIS_CORR=rimp2-def2-QZVPPD, SCF_ALGORITHM=GDM, xc_grid=000099000590, mem_total=30000, num_basis=1233, num_pairs=610758, num_threads=8
C  2.4285455023  0.9170560010  0.0345149614
C  1.7722235019  -0.4554510004  0.1514179618
C  0.4570545007  -0.5700580007  -0.6230430388
C  -0.7072605007  0.2541820004  -0.0425600383
C  -1.8844365016  -0.7347420009  -0.0376680386
O  -2.8005575030  -0.4057680005  1.0026289626
C  -1.1659385013  -2.0743050022  0.1586989618
O  3.6368895033  0.9764770010  0.7807889622
O  -0.8820435010  1.4131250013  -0.8342540395
O  2.7230255027  -1.3926000012  -0.3591380388
O  0.0360154999  -1.9574300022  -0.6074120388
C  -1.7174455019  2.4111250026  -0.2515080389
H  1.7729695016  1.6934780018  0.4375269618
H  2.6106465027  1.1378440012  -1.0277420395
H  1.5827775017  -0.6703610008  1.2159939628
H  0.6191515009  -0.2908330003  -1.6700370401
H  -0.5098545005  0.5413910007  1.0039929624
H  -2.3745085023  -0.6988480007  -1.0203780395
H  -3.6023085035  -0.9359640009  0.9065629625
H  -1.7201235018  -2.9390960031  -0.2183360387
H  -0.9519695008  -2.2254650020  1.2276589630
H  4.1728375043  0.2154280004  0.5134909618
H  2.2831875024  -2.2543010022  -0.4094250390
H  -2.7486405025  2.0600290019  -0.1308200385
H  -1.3336305015  2.7206150025  0.7310939622
H  -1.6966065018  3.2644720030  -0.9320490395