26
charge=0, multiplicity=1, basis=def2-QZVPPD, AUX_BASIS_CORR=rimp2-def2-QZVPPD, SCF_ALGORITHM=GDM, xc_grid=000099000590, mem_total=30000, num_basis=1233, num_pairs=623849, num_threads=8
C  -2.8487075028  -0.9954398089  -0.1106188462
C  -1.4920675013  -0.8041858085  0.5887761544
C  -0.3567265006  -0.5227318082  -0.4041238466
C  1.0132205010  -0.2168348080  0.2402491542
C  1.1644435010  1.3139711938  0.0558821539
O  0.6205115007  2.0322621942  1.1503031549
C  0.4055225004  1.5386191938  -1.2526028476
O  -3.3976375034  0.2613411924  -0.5012398465
O  1.9961105022  -0.9580238087  -0.4753218466
O  -1.6113515014  0.2528151928  1.5513151553
O  -0.7114175008  0.6310471927  -1.1978388471
C  3.2491605032  -1.0561628088  0.1895231540
H  -2.7416255030  -1.6746668094  -0.9673908469
H  -3.5682125037  -1.4319328089  0.5878101546
H  -1.2393685011  -1.7219208095  1.1356791548
H  -0.2357155004  -1.3925268091  -1.0638848471
H  1.0430665011  -0.4800798081  1.3064751554
H  2.2129045022  1.6113511940  -0.0296668463
H  -0.1873515002  1.5711841939  1.4471261553
H  0.0145665002  2.5544111947  -1.3426498476
H  1.0357755012  1.2991811934  -2.1201338484
H  -2.7535765029  0.6785741932  -1.0998948472
H  -2.3628435022  0.7960251932  1.2531791550
H  3.7236355035  -0.0755018076  0.3291681541
H  3.1371985033  -1.5369278094  1.1722741550
H  3.8904855039  -1.6738478092  -0.4423938468