26
charge=0, multiplicity=1, basis=def2-QZVPPD, AUX_BASIS_CORR=rimp2-def2-QZVPPD, SCF_ALGORITHM=GDM, xc_grid=000099000590, mem_total=30000, num_basis=1233, num_pairs=619530, num_threads=8
C  2.3502080024  0.6149577699  0.2599059620
C  1.4760620013  -0.6028252314  -0.0273980383
C  0.1198920002  -0.2496002311  -0.6539460390
C  -0.9273870010  0.3207597695  0.3344249620
C  -1.8402220017  -0.8904052315  0.6244539621
O  -1.3012190011  -1.7280042324  1.6463199632
C  -1.7762950018  -1.6522772324  -0.6908510392
O  3.5966710035  0.2378367696  0.8257059623
O  -1.7452460019  1.3272587707  -0.2472870389
O  2.2338510023  -1.4110582320  -0.9303130394
O  -0.4400450004  -1.4724012324  -1.1781960398
C  -1.1384290010  2.6088637720  -0.3279270385
H  2.5006070024  1.1758117706  -0.6761640390
H  1.8699510019  1.2772067703  0.9869009625
H  1.3029760011  -1.1584762318  0.9058129624
H  0.2682240001  0.4417687695  -1.4942230398
H  -0.4653880005  0.6997167698  1.2588169625
H  -2.8547950030  -0.5559982314  0.8692409624
H  -1.4014390014  -1.2925292318  2.5029399640
H  -1.9543640018  -2.7221282337  -0.5602200390
H  -2.4976630024  -1.2366822320  -1.4067040397
H  3.9561500037  -0.4678882313  0.2675859617
H  1.6527220018  -2.1271222329  -1.2284190396
H  -0.8507060008  2.9734357719  0.6695129620
H  -0.2504060002  2.6070267718  -0.9751030394
H  -1.8837100018  3.2827527727  -0.7548700392