26
charge=0, multiplicity=1, basis=def2-QZVPPD, AUX_BASIS_CORR=rimp2-def2-QZVPPD, SCF_ALGORITHM=GDM, xc_grid=000099000590, mem_total=30000, num_basis=1233, num_pairs=617007, num_threads=8
C  2.3082610025  0.5672549237  0.3042387694
C  1.4322940014  -0.6703960776  0.1301137693
C  0.1461600001  -0.4289010774  -0.6768252315
C  -0.9677400011  0.3453319235  0.0779837692
C  -2.1343510020  -0.6607850773  0.1664777694
O  -2.8202070027  -0.6686520777  1.4089777705
C  -1.4585810016  -2.0079390787  -0.0643782307
O  3.4931980037  0.2643649235  1.0242187703
O  -1.4469170016  1.5055349245  -0.5884882313
O  2.2485730024  -1.6282420785  -0.5451942313
O  -0.4190370006  -1.7217570786  -1.0059032316
C  -0.6052330005  2.6457719255  -0.4974722311
H  1.7862510016  1.3353139242  0.8818487703
H  2.5486160025  0.9779269242  -0.6893362316
H  1.1670210010  -1.0550110781  1.1289667704
H  0.3897290005  0.0518629230  -1.6304282326
H  -0.6449770007  0.6101249236  1.0969517702
H  -2.8201620026  -0.4363720775  -0.6606922312
H  -3.3911800033  0.1090209230  1.4565697704
H  -2.1137510022  -2.7593110795  -0.5089902311
H  -1.0584850012  -2.3968700795  0.8837447701
H  3.8895240041  -0.5132190775  0.6035537698
H  1.6622360018  -2.3374390791  -0.8514932315
H  -0.4081320006  2.9137239260  0.5509827698
H  0.3532560005  2.4918069254  -1.0122922319
H  -1.1363660013  3.4668559268  -0.9831352317