24
charge=0, multiplicity=1, basis=def2-QZVPPD, AUX_BASIS_CORR=rimp2-def2-QZVPPD, SCF_ALGORITHM=GDM, xc_grid=000099000590, mem_total=30000, num_basis=1170, num_pairs=566188, num_threads=8
C  -1.2503958710  -1.2086174437  -0.2791935353
O  0.0420627520  -1.5061583175  0.2365410828
C  1.0526516006  -0.5921917005  -0.2121907223
C  0.6958308234  0.8154787349  0.2945417901
C  -1.7159731893  0.1670817051  0.2044087232
C  -0.6896389812  1.2208750302  -0.1974523586
H  1.0934426219  -0.5858758049  -1.3132962913
O  -0.9782188882  2.4984086465  0.3655034353
O  -2.9580338871  0.5487039971  -0.3793446551
O  -2.1594710985  -2.1500410362  0.2113035562
O  1.6944780957  1.7291051794  -0.1624098405
H  -3.6320427718  -0.0962952702  -0.1098395549
C  2.3995612686  -1.0967123181  0.3172004418
H  -1.8963233919  -3.0339243436  -0.0924233511
H  1.3993021943  2.6273403363  0.0644397607
H  -1.8741253938  2.7542898086  0.0907649911
H  2.4895638727  -2.1626608049  0.0898089080
H  -0.6709258025  1.2969297143  -1.2961440104
H  -1.7978102270  0.1293766821  1.3000994453
H  -1.2124466776  -1.2336560484  -1.3826993200
H  0.6861857467  0.7985286775  1.3951205733
O  3.4960970344  -0.4511339272  -0.3102720109
H  3.3534021545  0.5100366419  -0.2463162889
H  2.4328280149  -0.9788881387  1.4118492314