26
charge=0, multiplicity=1, basis=def2-QZVPPD, AUX_BASIS_CORR=rimp2-def2-QZVPPD, SCF_ALGORITHM=GDM, xc_grid=000099000590, mem_total=30000, num_basis=1233, num_pairs=614015, num_threads=8
C  -2.9972146954  -0.6653529238  -0.3979302313
C  -1.5878206938  -0.9395789239  0.1510557695
C  -0.5140966929  -0.1167919233  -0.5739892314
C  0.8970133088  -0.2338809232  0.0169077694
C  1.4848593091  1.1642760779  -0.2121202307
O  2.5319593103  1.4257170783  0.7178777698
C  0.2510583077  2.0557920787  -0.0253112308
O  -3.4877816959  0.5951830774  0.0588637691
O  1.5715353092  -1.2937889242  -0.6347662312
O  -1.5670216937  -0.7204929238  1.5578387709
O  -0.8479906933  1.2963920780  -0.5516292314
C  2.7168583106  -1.7826539250  0.0607267694
H  -3.6943996958  -1.4150259243  -0.0140142306
H  -2.9972886950  -0.7222139236  -1.4959942324
H  -1.3397926935  -1.9961549249  -0.0162672307
H  -0.4802596925  -0.4398079233  -1.6239852324
H  0.8431973087  -0.4157619234  1.0996957701
H  1.8589763092  1.2222870783  -1.2439582320
H  2.9892743106  2.2391500788  0.4683707694
H  0.3009523080  3.0030860800  -0.5719522313
H  0.1034283075  2.2616730791  1.0437617703
H  -2.8555586952  1.2694410781  -0.2434192309
H  -2.2144976947  -0.0189509230  1.7358297712
H  3.4986233114  -1.0189569241  0.1420217693
H  2.4466573099  -2.1229389250  1.0702147700
H  3.0893303109  -2.6306459258  -0.5178282315