24
charge=0, multiplicity=1, basis=def2-QZVPPD, AUX_BASIS_CORR=rimp2-def2-QZVPPD, SCF_ALGORITHM=GDM, xc_grid=000099000590, mem_total=30000, num_basis=1170, num_pairs=598772, num_threads=8
C  0.8366078492  -0.2244784189  1.1213111386
C  0.3825661372  -1.3587861582  0.1812671181
C  -0.5918651862  -0.8890185234  -0.9250985786
O  -0.1528533036  0.3231620164  -1.5707569335
C  1.2641422917  1.0129169877  0.3106329915
C  0.2459564813  1.4254031083  -0.7792166531
O  -0.8117485151  2.1750959858  -0.2444936106
O  1.5205455501  -1.9962504949  -0.3858306767
C  -2.0822312647  -0.8540763877  -0.5529649221
H  -1.5463735430  1.5656233623  0.0081516167
O  -2.4612219953  0.1058857740  0.4343403858
H  2.1204262338  -1.2992943082  -0.7114231032
H  -1.9196484337  -0.0472281672  1.2360723576
O  -0.2404067187  0.0581398947  2.0278441775
O  2.5208045212  0.6412378003  -0.2761394759
H  0.7567593685  2.0900892981  -1.4884363453
H  -0.1175754001  -2.1256889434  0.7834930857
H  2.7870606017  1.3132179618  -0.9243213183
H  -0.5117371630  -1.6440014953  -1.7158475936
H  -2.6540367146  -0.5965919773  -1.4484356190
H  -0.0733001091  0.8976363765  2.4861053017
H  1.7035465365  -0.5840306609  1.6883545939
H  1.4050472597  1.8753248875  0.9794001348
H  -2.3804644839  -1.8642879181  -0.2340080719