24
charge=0, multiplicity=1, basis=def2-QZVPPD, AUX_BASIS_CORR=rimp2-def2-QZVPPD, SCF_ALGORITHM=GDM, xc_grid=000099000590, mem_total=30000, num_basis=1170, num_pairs=596515, num_threads=8
C  -0.1128850730  -1.4186385483  -0.7803625545
O  0.4095924369  -0.2365487154  -1.3636484836
C  0.6198000222  0.8899058155  -0.5025382497
C  -0.6101160857  1.2075778698  0.3677808537
C  -1.4390059753  -1.1624346436  -0.0462672907
C  -1.2476032798  -0.0508890875  1.0095157932
O  -0.4867975171  -0.4991947927  2.1245499673
O  -1.6604379006  1.7938340010  -0.4226803979
C  1.9311508281  0.7747941547  0.3288283460
O  2.8822543621  -0.1163454376  -0.2561603627
H  0.1291136748  -1.1858269546  1.8029642630
H  -1.3359029624  2.5943024833  -0.8642411411
H  2.9763378076  0.0892087503  -1.2007146038
O  0.7933302409  -1.9884761017  0.1608635390
O  -2.4707477266  -0.8635126479  -0.9702191518
H  -2.2318028798  0.2457706825  1.3858629384
H  -0.3184105711  1.8950379121  1.1742139425
H  0.7515118342  1.7119422379  -1.2190235895
H  2.3634652382  1.7800588462  0.4373536456
H  1.7034878491  -1.7500953435  -0.1119723939
H  -2.3938896568  0.0767028832  -1.2163588904
H  -0.2657207888  -2.0882824912  -1.6323052529
H  -1.7328959045  -2.0852610849  0.4642478368
H  1.7461720274  0.3863702126  1.3303112369