8
charge=1, multiplicity=2, basis=def2-QZVPPD, AUX_BASIS_CORR=rimp2-def2-QZVPPD, SCF_ALGORITHM=GDM, xc_grid=000099000590, mem_total=3750, num_basis=324, num_pairs=50801, num_threads=1
N  0.0000000000  0.0000000000  -1.3540692400
N  0.0000000000  0.0000000000  1.3540692400
H  0.8429730300  0.4866907100  -1.6297426800
H  0.0000000000  -0.9733814100  -1.6297426800
H  -0.8429730300  0.4866907100  -1.6297426800
H  0.8429730300  -0.4866907100  1.6297426800
H  0.0000000000  0.9733814100  1.6297426800
H  -0.8429730300  -0.4866907100  1.6297426800