8
charge=1, multiplicity=2, basis=def2-QZVPPD, AUX_BASIS_CORR=rimp2-def2-QZVPPD, SCF_ALGORITHM=GDM, xc_grid=000099000590, mem_total=3750, num_basis=324, num_pairs=47686, num_threads=1
N  -1.6248830000  0.0000000000  0.0000000700
N  1.6248830000  0.0000000000  -0.0000000700
H  -1.9005570200  -0.8425938200  -0.4873470900
H  -1.9005569600  -0.0007578400  0.9733807800
H  -1.9005570200  0.8433516700  -0.4860344600
H  1.9005570200  -0.8433516700  0.4860344600
H  1.9005569600  0.0007578400  -0.9733807800
H  1.9005570200  0.8425938200  0.4873470900