6
charge=1, multiplicity=2, basis=def2-QZVPPD, AUX_BASIS_CORR=rimp2-def2-QZVPPD, SCF_ALGORITHM=GDM, xc_grid=000099000590, mem_total=3750, num_basis=264, num_pairs=31116, num_threads=1
O  1.7694007500  0.0000000000  0.0691106800
O  -1.7694007500  0.0000000000  -0.0691107900
H  1.8987198800  0.7751370000  -0.5111716100
H  1.8987198800  -0.7751370000  -0.5111716100
H  -1.8987198300  0.7751370000  0.5111725000
H  -1.8987198300  -0.7751370000  0.5111725000