6
charge=1, multiplicity=2, basis=def2-QZVPPD, AUX_BASIS_CORR=rimp2-def2-QZVPPD, SCF_ALGORITHM=GDM, xc_grid=000099000590, mem_total=3750, num_basis=264, num_pairs=32711, num_threads=1
O  1.5161778500  0.0000000000  0.0698428000
O  -1.5161778600  0.0000000000  -0.0698429100
H  1.6495519900  0.7751370000  -0.5095209200
H  1.6495519900  -0.7751370000  -0.5095209200
H  -1.6495519500  0.7751370000  0.5095218000
H  -1.6495519500  -0.7751370000  0.5095218000