8
charge=1, multiplicity=2, basis=def2-QZVPPD, AUX_BASIS_CORR=rimp2-def2-QZVPPD, SCF_ALGORITHM=GDM, xc_grid=000099000590, mem_total=3750, num_basis=324, num_pairs=52788, num_threads=1
N  0.0000000000  0.0000000000  -1.0832553900
N  0.0000000000  0.0000000000  1.0832553900
H  0.8429730300  0.4866907100  -1.3589288300
H  0.0000000000  -0.9733814100  -1.3589288300
H  -0.8429730300  0.4866907100  -1.3589288300
H  0.8429730300  -0.4866907100  1.3589288300
H  0.0000000000  0.9733814100  1.3589288300
H  -0.8429730300  -0.4866907100  1.3589288300