6
charge=1, multiplicity=2, basis=def2-QZVPPD, AUX_BASIS_CORR=rimp2-def2-QZVPPD, SCF_ALGORITHM=GDM, xc_grid=000099000590, mem_total=3750, num_basis=264, num_pairs=34643, num_threads=1
O  1.2628310800  0.0000000000  0.0709281900
O  -1.2628310800  0.0000000000  -0.0709283000
H  1.4020351600  0.7751370000  -0.5070624700
H  1.4020351600  -0.7751370000  -0.5070624700
H  -1.4020351200  0.7751370000  0.5070633600
H  -1.4020351200  -0.7751370000  0.5070633600