8
charge=0, multiplicity=1, basis=AUG-PC-3, multipole_field={'X': -0.004}, AUX_BASIS_CORR=rimp2-def2-QZVPPD, SCF_ALGORITHM=GDM, xc_grid=000099000590, mem_total=3750, num_basis=595, num_pairs=169873, num_threads=1
N -0.091593 -0.542859 -0.000002
N -1.235025 -0.089021 0.000000
N -2.326717 0.196979 0.000000
C 0.978435 0.373808 0.000000
C 2.241526 -0.037019 0.000000
H 0.716580 1.426207 0.000003
H 2.493945 -1.087536 -0.000002
H 3.043059 0.684904 0.000002