10
charge=0, multiplicity=1, basis=AUG-PC-3, AUX_BASIS_CORR=rimp2-def2-QZVPPD, SCF_ALGORITHM=GDM, xc_grid=000099000590, mem_total=7500, num_basis=773, num_pairs=271750, num_threads=2
S  -1.1019350000  0.1298830000  0.7662870000
S  1.5868600000  -1.0136990000  0.0244020000
N  -3.5562410000  0.4441820000  -0.6517480000
C  -0.1107500000  -0.7171120000  -0.5524540000
C  -2.5566880000  0.3126560000  -0.0852410000
C  2.2643150000  0.5278790000  -0.1124700000
C  2.8173050000  1.5935530000  -0.1892200000
H  -0.1095580000  -0.1111810000  -1.4516310000
H  -0.5385500000  -1.6967690000  -0.7454490000
H  3.2979080000  2.5378820000  -0.2553920000