11
charge=0, multiplicity=1, basis=AUG-PC-3, AUX_BASIS_CORR=rimp2-def2-QZVPPD, SCF_ALGORITHM=GDM, xc_grid=000099000590, mem_total=7500, num_basis=784, num_pairs=297759, num_threads=2
S  2.2272570000  0.0614670000  0.0154370000
C  0.5802870000  0.1392500000  0.0253440000
N  -0.1706070000  1.2603730000  0.1084820000
C  -1.5902380000  1.1518420000  -0.1968760000
C  -1.9892290000  -0.2607410000  0.2256930000
S  -0.4866810000  -1.2736920000  -0.0867720000
H  0.3126430000  2.1426500000  0.0442030000
H  -1.7655880000  1.2975060000  -1.2678750000
H  -2.1522660000  1.9069540000  0.3520890000
H  -2.8216110000  -0.6455280000  -0.3565360000
H  -2.2330670000  -0.3107000000  1.2851460000