10
charge=0, multiplicity=1, basis=AUG-PC-3, multipole_field={'Z': 0.004}, AUX_BASIS_CORR=rimp2-def2-QZVPPD, SCF_ALGORITHM=GDM, xc_grid=000099000590, mem_total=15000, num_basis=812, num_pairs=316658, num_threads=4
S 1.989323 -0.009549 -0.145290
O 0.854042 -1.274861 0.212013
O 0.929171 1.296398 0.203214
O -1.541919 -1.139480 -0.026054
C -0.315704 -0.615131 -0.021948
C -0.319252 0.726214 -0.022953
C -1.682955 1.131606 -0.022667
C -2.386914 -0.036529 -0.038427
H -2.098136 2.123419 -0.033853
H -3.432428 -0.264049 -0.118917