8
charge=0, multiplicity=1, basis=AUG-PC-3, AUX_BASIS_CORR=rimp2-def2-QZVPPD, SCF_ALGORITHM=GDM, xc_grid=000099000590, mem_total=3750, num_basis=634, num_pairs=184118, num_threads=1
O  -2.7692160000  -0.5362640000  0.0002150000
C  -0.5465430000  0.1980830000  -0.0006980000
C  -1.9741750000  0.3755750000  0.0003090000
C  0.6602850000  0.1015180000  -0.0006320000
C  2.0126610000  -0.0245550000  -0.0002070000
C  3.2125760000  -0.1346340000  0.0004980000
H  -2.3049880000  1.4283980000  0.0014600000
H  4.2698940000  -0.2342100000  0.0011980000