9
charge=0, multiplicity=1, basis=AUG-PC-3, AUX_BASIS_CORR=rimp2-def2-QZVPPD, SCF_ALGORITHM=GDM, xc_grid=000099000590, mem_total=7500, num_basis=688, num_pairs=231730, num_threads=2
Br  -1.5367070000  0.0087140000  -0.0000030000
N  1.0962110000  -1.0313570000  -0.0000010000
N  2.4141340000  -0.7553210000  0.0000030000
C  0.3383510000  0.0878180000  0.0000000000
C  1.1962840000  1.1621390000  0.0000060000
C  2.4758000000  0.5706390000  0.0000070000
H  0.9340420000  2.2037970000  0.0000080000
H  0.7799590000  -1.9851690000  -0.0000030000
H  3.4357110000  1.0595530000  0.0000100000