6
charge=0, multiplicity=1, basis=AUG-PC-3, AUX_BASIS_CORR=rimp2-def2-QZVPPD, SCF_ALGORITHM=GDM, xc_grid=000099000590, mem_total=3750, num_basis=456, num_pairs=101331, num_threads=1
O  0.5002020000  0.6494330000  -0.0121910000
O  1.4988870000  -0.4645520000  -0.0991130000
C  -0.6899300000  0.1506000000  0.0017280000
C  -1.8243340000  -0.2419030000  0.0155620000
H  1.9230950000  -0.3551880000  0.7660500000
H  -2.8302230000  -0.5760390000  0.0206460000