8
charge=0, multiplicity=1, basis=AUG-PC-3, AUX_BASIS_CORR=rimp2-def2-QZVPPD, SCF_ALGORITHM=GDM, xc_grid=000099000590, mem_total=3750, num_basis=595, num_pairs=170075, num_threads=1
Cl  -0.1423530000  1.6823180000  0.0000060000
S  0.9080590000  -1.1122520000  -0.0000030000
S  -1.9833990000  -0.6515740000  -0.0000050000
C  -0.4750090000  -0.0608770000  0.0000000000
C  2.3958940000  -0.0599420000  0.0000030000
H  2.4371720000  0.5557190000  0.8931200000
H  3.2257850000  -0.7647240000  0.0000010000
H  2.4371740000  0.5557260000  -0.8931100000