12
charge=0, multiplicity=1, basis=AUG-PC-3, AUX_BASIS_CORR=rimp2-def2-QZVPPD, SCF_ALGORITHM=GDM, xc_grid=000099000590, mem_total=15000, num_basis=834, num_pairs=332958, num_threads=4
S  0.0639890000  -1.2687750000  -0.1061570000
C  -0.8550000000  0.2452650000  0.0221980000
C  -0.1242310000  1.3619160000  0.0260500000
C  1.3508420000  1.1277670000  -0.1617670000
C  1.6141870000  -0.3319400000  0.2445770000
O  -2.2001170000  0.0867420000  0.0724540000
H  -0.5577650000  2.3516750000  0.0762230000
H  1.9631540000  1.7987490000  0.4436460000
H  1.8111880000  -0.4109070000  1.3125500000
H  1.6391550000  1.2905310000  -1.2070610000
H  2.4322390000  -0.7911400000  -0.3037640000
H  -2.6256440000  0.9495150000  0.0109350000