10
charge=0, multiplicity=1, basis=AUG-PC-3, AUX_BASIS_CORR=rimp2-def2-QZVPPD, SCF_ALGORITHM=GDM, xc_grid=000099000590, mem_total=15000, num_basis=812, num_pairs=314679, num_threads=4
F  2.2321970000  -0.9733600000  0.0000000000
F  -2.2434970000  -1.0020720000  0.0000000000
N  -0.0012630000  -1.0041420000  0.0000000000
N  1.2291750000  1.0280370000  0.0000010000
C  1.1033780000  -0.2784530000  0.0000000000
C  -1.1098680000  -0.3060470000  0.0000000000
C  -1.1601180000  1.0807970000  0.0000010000
C  0.0746510000  1.7049200000  0.0000010000
H  -2.0937030000  1.6195450000  0.0000010000
H  0.1517680000  2.7847790000  0.0000020000