10
charge=0, multiplicity=1, basis=AUG-PC-3, AUX_BASIS_CORR=rimp2-def2-QZVPPD, SCF_ALGORITHM=GDM, xc_grid=000099000590, mem_total=15000, num_basis=812, num_pairs=307895, num_threads=4
O  1.0866270000  -0.7688940000  -0.0000190000
O  -1.0866270000  -0.7688940000  -0.0000180000
N  3.3445700000  0.1724290000  0.0000050000
N  -3.3445700000  0.1724290000  0.0000110000
C  0.0000000000  0.0870740000  -0.0000010000
C  2.2705100000  -0.2445330000  -0.0000050000
C  -2.2705100000  -0.2445330000  -0.0000020000
C  0.0000000000  1.4016010000  0.0000270000
H  -0.9311720000  1.9453190000  0.0000380000
H  0.9311720000  1.9453190000  0.0000380000