7
charge=0, multiplicity=1, basis=AUG-PC-3, AUX_BASIS_CORR=rimp2-def2-QZVPPD, SCF_ALGORITHM=GDM, xc_grid=000099000590, mem_total=3750, num_basis=545, num_pairs=145675, num_threads=1
C  0.0000000000  0.0000000000  0.8282330000
C  0.0000000000  1.2212050000  0.0217260000
C  0.0000000000  -1.2212050000  0.0217260000
H  0.8793490000  0.0000000000  1.4763880000
H  -0.8793490000  0.0000000000  1.4763880000
N  0.0000000000  2.1958670000  -0.5844920000
N  0.0000000000  -2.1958670000  -0.5844920000