11
charge=0, multiplicity=1, basis=AUG-PC-3, AUX_BASIS_CORR=rimp2-def2-QZVPPD, SCF_ALGORITHM=GDM, xc_grid=000099000590, mem_total=15000, num_basis=823, num_pairs=322094, num_threads=4
S  -0.1805300000  -1.5101250000  0.0966970000
S  -0.1805300000  1.5101250000  -0.0966980000
F  1.6902990000  -0.0190730000  -1.0776170000
F  1.6902980000  0.0190730000  1.0776180000
C  0.8567480000  0.0000000000  0.0000000000
C  -1.7502630000  -0.6814450000  -0.3346400000
C  -1.7502620000  0.6814450000  0.3346410000
H  -2.5517700000  -1.3152560000  0.0439450000
H  -1.8411070000  -0.5941400000  -1.4154570000
H  -2.5517700000  1.3152570000  -0.0439440000
H  -1.8411050000  0.5941410000  1.4154580000