5
charge=0, multiplicity=1, basis=AUG-PC-3, AUX_BASIS_CORR=rimp2-def2-QZVPPD, SCF_ALGORITHM=GDM, xc_grid=000099000590, mem_total=3750, num_basis=328, num_pairs=54559, num_threads=1
C  0.0000000000  0.0000000000  -0.6376840000
F  0.0000000000  0.0000000000  0.7540620000
H  0.0000000000  1.0320680000  -0.9868190000
H  0.8937970000  -0.5160340000  -0.9868190000
H  -0.8937970000  -0.5160340000  -0.9868190000