10
charge=0, multiplicity=1, basis=AUG-PC-3, AUX_BASIS_CORR=rimp2-def2-QZVPPD, SCF_ALGORITHM=GDM, xc_grid=000099000590, mem_total=7500, num_basis=773, num_pairs=286796, num_threads=2
Cl  -2.0089720000  -0.6456330000  -0.0000160000
S  0.9169950000  -1.3826700000  0.0000440000
N  1.5621360000  1.0125180000  -0.0000640000
N  2.1045480000  -0.1389030000  0.0000000000
C  -0.3425270000  -0.2253210000  -0.0000290000
C  0.1925850000  1.0373550000  -0.0000810000
C  -0.5283020000  2.3432590000  0.0000420000
H  -0.2517610000  2.9295100000  -0.8767670000
H  -1.6054490000  2.1965560000  -0.0048950000
H  -0.2595200000  2.9253610000  0.8820740000