8
charge=0, multiplicity=1, basis=AUG-PC-3, multipole_field={'Z': 0.004}, AUX_BASIS_CORR=rimp2-def2-QZVPPD, SCF_ALGORITHM=GDM, xc_grid=000099000590, mem_total=3750, num_basis=556, num_pairs=146969, num_threads=1
C 0.000000 0.000000 0.631617
C 0.000000 0.000000 -0.631617
C 0.000000 0.000000 1.943149
C 0.000000 0.000000 -1.943149
H 0.000000 0.924533 2.508102
H 0.000000 -0.924533 2.508102
H 0.000000 0.924533 -2.508102
H 0.000000 -0.924533 -2.508102