9
charge=0, multiplicity=1, basis=AUG-PC-3, multipole_field={'Y': 0.004}, AUX_BASIS_CORR=rimp2-def2-QZVPPD, SCF_ALGORITHM=GDM, xc_grid=000099000590, mem_total=7500, num_basis=684, num_pairs=226920, num_threads=2
Cl 0.551587 1.629115 0.087511
Cl -2.244644 -0.339481 -0.083117
N 2.790232 -1.254867 0.059102
C 0.482758 -0.120609 -0.375006
C -0.599970 -0.872040 0.395411
C 1.784559 -0.732929 -0.133991
H 0.269104 -0.138557 -1.441420
H -0.528062 -1.933131 0.170399
H -0.494775 -0.714549 1.464113