6
charge=0, multiplicity=1, basis=AUG-PC-3, AUX_BASIS_CORR=rimp2-def2-QZVPPD, SCF_ALGORITHM=GDM, xc_grid=000099000590, mem_total=3750, num_basis=460, num_pairs=105494, num_threads=1
Br  0.0000000000  1.0216140000  0.0000000000
N  -0.9600720000  -2.6583660000  0.0000000000
C  0.8209930000  -0.7694700000  0.0000000000
C  -0.1808140000  -1.8129660000  0.0000000000
H  1.4397180000  -0.8266490000  0.8897580000
H  1.4397180000  -0.8266490000  -0.8897580000