9
charge=0, multiplicity=1, basis=AUG-PC-3, AUX_BASIS_CORR=rimp2-def2-QZVPPD, SCF_ALGORITHM=GDM, xc_grid=000099000590, mem_total=7500, num_basis=723, num_pairs=250659, num_threads=2
S  -1.7113300000  -0.5914980000  0.0000020000
N  -0.1257130000  -1.0506630000  0.0000000000
N  3.2061020000  -0.1621080000  -0.0000040000
C  -0.0412780000  1.2873870000  0.0000000000
C  0.6317260000  0.0334880000  -0.0000010000
C  -1.3906050000  1.0912950000  0.0000020000
C  2.0567080000  -0.0991580000  -0.0000020000
H  0.4538220000  2.2449220000  0.0000000000
H  -2.1745750000  1.8303780000  0.0000030000