8
charge=0, multiplicity=1, basis=AUG-PC-3, multipole_field={'Z': -0.004}, AUX_BASIS_CORR=rimp2-def2-QZVPPD, SCF_ALGORITHM=GDM, xc_grid=000099000590, mem_total=7500, num_basis=712, num_pairs=244988, num_threads=2
C 0.000000 0.000000 0.792268
C 0.000000 0.000000 -0.792268
Cl 0.000000 1.679244 1.403393
Cl -1.454268 -0.839622 1.403393
Cl 1.454268 -0.839622 1.403393
Cl 0.000000 -1.679244 -1.403393
Cl -1.454268 0.839622 -1.403393
Cl 1.454268 0.839622 -1.403393