8
charge=0, multiplicity=1, basis=AUG-PC-3, multipole_field={'Y': -0.004}, AUX_BASIS_CORR=rimp2-def2-QZVPPD, SCF_ALGORITHM=GDM, xc_grid=000099000590, mem_total=7500, num_basis=634, num_pairs=197431, num_threads=2
C 0.361772 0.190165 0.000000
C -1.157274 0.243325 0.000000
F 0.843210 1.450981 0.000000
F 0.843210 -0.436999 1.084078
F 0.843210 -0.436999 -1.084078
F -1.667677 -1.036067 0.000000
H -1.492284 0.765414 0.895748
H -1.492284 0.765414 -0.895748