8
charge=0, multiplicity=1, basis=AUG-PC-3, AUX_BASIS_CORR=rimp2-def2-QZVPPD, SCF_ALGORITHM=GDM, xc_grid=000099000590, mem_total=3750, num_basis=607, num_pairs=182495, num_threads=1
C  0.0000000000  0.0000000000  0.4647220000
C  0.0000000000  0.0000000000  1.9779050000
Br  0.0000000000  1.8514600000  -0.2065660000
Br  1.6034110000  -0.9257300000  -0.2065660000
Br  -1.6034110000  -0.9257300000  -0.2065660000
H  0.0000000000  -1.0249930000  2.3445640000
H  0.8876700000  0.5124960000  2.3445640000
H  -0.8876700000  0.5124960000  2.3445640000