11
charge=0, multiplicity=1, basis=AUG-PC-3, AUX_BASIS_CORR=rimp2-def2-QZVPPD, SCF_ALGORITHM=GDM, xc_grid=000099000590, mem_total=7500, num_basis=745, num_pairs=271763, num_threads=2
O  -0.0000050000  1.1877160000  0.0000000000
C  0.0000090000  0.3679810000  1.1743000000
C  0.0000090000  -1.0407640000  0.6623460000
C  0.0000090000  -1.0407640000  -0.6623460000
C  0.0000090000  0.3679810000  -1.1743000000
H  -0.8845240000  0.5964280000  1.7807020000
H  0.8844210000  0.5964650000  1.7808100000
H  0.8844210000  0.5964650000  -1.7808100000
H  -0.8845240000  0.5964280000  -1.7807020000
H  0.0000160000  -1.9070630000  1.3071780000
H  0.0000160000  -1.9070630000  -1.3071780000