10
charge=0, multiplicity=1, basis=AUG-PC-3, multipole_field={'Y': 0.004}, AUX_BASIS_CORR=rimp2-def2-QZVPPD, SCF_ALGORITHM=GDM, xc_grid=000099000590, mem_total=7500, num_basis=773, num_pairs=288350, num_threads=2
S -2.641922 -0.576015 0.000004
S 2.636269 -0.592371 -0.000006
O 0.011190 -0.739778 -0.000001
N -0.727198 1.331855 0.000004
C -1.137706 0.051692 0.000002
C 1.141741 0.018753 -0.000002
C 0.712543 1.468811 0.000000
H -1.390465 2.086210 0.000006
H 1.091158 1.983830 0.885264
H 1.091154 1.983833 -0.885262