7
charge=0, multiplicity=1, basis=AUG-PC-3, multipole_field={'X': 0.004}, AUX_BASIS_CORR=rimp2-def2-QZVPPD, SCF_ALGORITHM=GDM, xc_grid=000099000590, mem_total=3750, num_basis=467, num_pairs=108748, num_threads=1
C 0.000000 0.619383 0.000000
C -1.485214 0.718099 0.000000
S 0.874031 -0.744703 0.000000
H 0.520354 1.577729 0.000000
H -1.957612 -0.260850 0.000000
H -1.817979 1.286739 0.874315
H -1.817979 1.286739 -0.874315