8
charge=0, multiplicity=1, basis=AUG-PC-3, AUX_BASIS_CORR=rimp2-def2-QZVPPD, SCF_ALGORITHM=GDM, xc_grid=000099000590, mem_total=3750, num_basis=556, num_pairs=152623, num_threads=1
C  0.0000000000  0.0000000000  -0.3168830000
S  0.0000000000  0.0000000000  1.3530970000
N  0.0000000000  1.1469870000  -1.0468350000
N  0.0000000000  -1.1469870000  -1.0468350000
H  0.1285430000  2.0009260000  -0.5339050000
H  0.2855360000  1.1433430000  -2.0123730000
H  -0.1285430000  -2.0009260000  -0.5339050000
H  -0.2855360000  -1.1433430000  -2.0123730000