9
charge=0, multiplicity=1, basis=AUG-PC-3, multipole_field={'X': 0.004}, AUX_BASIS_CORR=rimp2-def2-QZVPPD, SCF_ALGORITHM=GDM, xc_grid=000099000590, mem_total=3750, num_basis=606, num_pairs=180550, num_threads=1
C -1.237894 -1.104197 -0.000349
C -0.280575 0.059414 -0.004593
N -0.872923 1.267541 0.000200
S 1.365722 -0.118344 0.000090
H -1.971419 -1.006290 -0.804504
H -0.698836 -2.036611 -0.119837
H -1.784470 -1.132530 0.945767
H -1.873504 1.369103 -0.005404
H -0.302047 2.095742 0.010785