8
charge=0, multiplicity=1, basis=AUG-PC-3, multipole_field={'Y': -0.004}, AUX_BASIS_CORR=rimp2-def2-QZVPPD, SCF_ALGORITHM=GDM, xc_grid=000099000590, mem_total=3750, num_basis=634, num_pairs=184118, num_threads=1
O -2.769216 -0.536264 0.000215
C -0.546543 0.198083 -0.000698
C -1.974175 0.375575 0.000309
C 0.660285 0.101518 -0.000632
C 2.012661 -0.024555 -0.000207
C 3.212576 -0.134634 0.000498
H -2.304988 1.428398 0.001460
H 4.269894 -0.234210 0.001198