5
charge=0, multiplicity=1, basis=AUG-PC-3, AUX_BASIS_CORR=rimp2-def2-QZVPPD, SCF_ALGORITHM=GDM, xc_grid=000099000590, mem_total=3750, num_basis=445, num_pairs=95287, num_threads=1
C  0.0000000000  0.0000000000  0.0000000000
C  0.0000000000  0.0000000000  1.2715090000
C  0.0000000000  0.0000000000  -1.2715090000
O  0.0000000000  0.0000000000  2.4312670000
O  0.0000000000  0.0000000000  -2.4312670000