7
charge=0, multiplicity=1, basis=AUG-PC-3, multipole_field={'Z': 0.004}, AUX_BASIS_CORR=rimp2-def2-QZVPPD, SCF_ALGORITHM=GDM, xc_grid=000099000590, mem_total=3750, num_basis=545, num_pairs=138667, num_threads=1
O -2.416628 -0.098841 -0.000028
C 0.087033 -0.011100 0.000005
C -1.117057 -0.002424 -0.000010
C 1.449836 0.001422 0.000013
C 2.655112 0.011669 0.000023
H -2.832487 0.773856 0.000005
H 3.715965 0.019465 0.000027