8
charge=0, multiplicity=1, basis=AUG-PC-3, AUX_BASIS_CORR=rimp2-def2-QZVPPD, SCF_ALGORITHM=GDM, xc_grid=000099000590, mem_total=3750, num_basis=634, num_pairs=182034, num_threads=1
O  3.1896840000  -0.0766570000  -0.0640990000
O  -3.1896840000  0.0766590000  -0.0641030000
C  0.6815410000  -0.0065310000  -0.0087900000
C  -0.6815410000  0.0065240000  -0.0087910000
C  1.8861100000  -0.0000330000  0.0037580000
C  -1.8861110000  0.0000320000  0.0037570000
H  3.6047420000  0.5501740000  0.5429910000
H  -3.6047440000  -0.5501430000  0.5430170000