5
charge=0, multiplicity=1, basis=AUG-PC-3, AUX_BASIS_CORR=rimp2-def2-QZVPPD, SCF_ALGORITHM=GDM, xc_grid=000099000590, mem_total=3750, num_basis=406, num_pairs=80540, num_threads=1
N  0.0000000000  0.0000000000  1.8924110000
C  0.0000000000  0.0000000000  0.7373500000
C  0.0000000000  0.0000000000  -0.6310580000
C  0.0000000000  0.0000000000  -1.8317270000
H  0.0000000000  0.0000000000  -2.8942660000