10
charge=0, multiplicity=1, basis=AUG-PC-3, AUX_BASIS_CORR=rimp2-def2-QZVPPD, SCF_ALGORITHM=GDM, xc_grid=000099000590, mem_total=15000, num_basis=812, num_pairs=316658, num_threads=4
S  1.9893230000  -0.0095490000  -0.1452900000
O  0.8540420000  -1.2748610000  0.2120130000
O  0.9291710000  1.2963980000  0.2032140000
O  -1.5419190000  -1.1394800000  -0.0260540000
C  -0.3157040000  -0.6151310000  -0.0219480000
C  -0.3192520000  0.7262140000  -0.0229530000
C  -1.6829550000  1.1316060000  -0.0226670000
C  -2.3869140000  -0.0365290000  -0.0384270000
H  -2.0981360000  2.1234190000  -0.0338530000
H  -3.4324280000  -0.2640490000  -0.1189170000