10
charge=0, multiplicity=1, basis=AUG-PC-3, AUX_BASIS_CORR=rimp2-def2-QZVPPD, SCF_ALGORITHM=GDM, xc_grid=000099000590, mem_total=7500, num_basis=777, num_pairs=293413, num_threads=2
Br  -1.6792810000  -0.2225490000  -0.1715030000
O  0.9041980000  -0.5961800000  0.8594730000
O  1.7244040000  0.8685500000  -0.6070820000
O  2.7670020000  -1.1183600000  -0.3222740000
C  -0.0594190000  0.4127160000  0.7958660000
C  1.8980970000  -0.3575300000  -0.0666460000
C  0.6488790000  1.5436700000  0.0543800000
H  -0.4124300000  0.6510470000  1.7903460000
H  1.0642620000  2.2708950000  0.7549520000
H  0.0328460000  2.0420430000  -0.6852130000