8
charge=0, multiplicity=1, basis=AUG-PC-3, AUX_BASIS_CORR=rimp2-def2-QZVPPD, SCF_ALGORITHM=GDM, xc_grid=000099000590, mem_total=3750, num_basis=595, num_pairs=174521, num_threads=1
C  0.6394320000  -1.2641000000  0.0000000000
C  1.2202640000  -0.0337120000  0.0000000000
C  -1.2032950000  -0.0696110000  0.0000000000
N  -0.7323700000  -1.2771740000  0.0000000000
S  0.0000000000  1.1846910000  0.0000000000
H  1.1762330000  -2.2004160000  0.0000000000
H  2.2666070000  0.2168080000  0.0000000000
H  -2.2546550000  0.1733180000  0.0000000000