9
charge=0, multiplicity=1, basis=AUG-PC-3, AUX_BASIS_CORR=rimp2-def2-QZVPPD, SCF_ALGORITHM=GDM, xc_grid=000099000590, mem_total=7500, num_basis=684, num_pairs=213379, num_threads=2
S  1.6463730000  -0.6422000000  -0.0000460000
N  -3.6792100000  0.2735660000  0.0000600000
C  2.3619070000  1.0487580000  0.0000070000
C  0.0078280000  -0.3018900000  -0.0000110000
C  -1.1910000000  -0.1217420000  0.0000120000
C  -2.5358480000  0.0903660000  0.0000370000
H  2.0576440000  1.5814130000  0.8955360000
H  3.4399060000  0.9043900000  -0.0000130000
H  2.0576200000  1.5814800000  -0.8954740000