13
charge=0, multiplicity=1, basis=AUG-PC-3, AUX_BASIS_CORR=rimp2-def2-QZVPPD, SCF_ALGORITHM=GDM, xc_grid=000099000590, mem_total=15000, num_basis=845, num_pairs=339656, num_threads=4
C  -2.2366970000  0.0806770000  -0.1291300000
H  -2.3226370000  -0.0671270000  -1.2062370000
H  -3.1336580000  -0.3328360000  0.3331390000
H  -2.2332850000  1.1524360000  0.0677740000
C  -1.0004790000  -0.6094810000  0.4293520000
H  -1.0469830000  -1.6891710000  0.2884410000
H  -0.8415280000  -0.4147380000  1.4903530000
C  0.7309370000  1.5402920000  0.2180130000
H  -0.0932060000  2.1582590000  -0.1335940000
S  0.5662600000  -0.1600110000  -0.4326520000
O  1.6518990000  -0.9670890000  0.2294350000
H  1.6719030000  1.9246480000  -0.1678300000
H  0.7614730000  1.4964900000  1.3054990000