10
charge=0, multiplicity=1, basis=AUG-PC-3, AUX_BASIS_CORR=rimp2-def2-QZVPPD, SCF_ALGORITHM=GDM, xc_grid=000099000590, mem_total=15000, num_basis=812, num_pairs=305299, num_threads=4
O  -0.1107020000  1.3229110000  -0.0001310000
O  3.4666180000  0.1120510000  -0.0000020000
N  1.1983900000  -0.5798670000  0.0000600000
N  -3.5436330000  0.2808250000  -0.0000380000
C  -1.1948500000  -0.8404190000  0.0000810000
C  -0.0225430000  0.1301290000  -0.0000130000
C  -2.4980570000  -0.1935460000  0.0000120000
C  2.3442500000  -0.1634990000  0.0000220000
H  -1.1017100000  -1.4912890000  -0.8724830000
H  -1.1017140000  -1.4911130000  0.8727770000