12
charge=0, multiplicity=1, basis=AUG-PC-3, multipole_field={'Y': 0.004}, AUX_BASIS_CORR=rimp2-def2-QZVPPD, SCF_ALGORITHM=GDM, xc_grid=000099000590, mem_total=15000, num_basis=795, num_pairs=304332, num_threads=4
C 2.147973 -1.066945 0.000000
H 2.507268 -2.095782 0.000000
H 2.554206 -0.572788 0.882885
H 2.554206 -0.572788 -0.882885
C 0.621595 -1.051458 0.000000
H 0.241625 -1.595107 -0.869387
H 0.241625 -1.595107 0.869387
C 0.604486 1.490130 0.000000
H 1.683307 1.546561 0.000000
C 0.000000 0.312724 0.000000
Cl -1.769241 0.256602 0.000000
H 0.050536 2.416069 0.000000