10
charge=0, multiplicity=1, basis=AUG-PC-3, AUX_BASIS_CORR=rimp2-def2-QZVPPD, SCF_ALGORITHM=GDM, xc_grid=000099000590, mem_total=7500, num_basis=777, num_pairs=288696, num_threads=2
Br  0.4841610000  -1.2502840000  0.0428250000
N  2.4032950000  1.9930030000  0.0379450000
N  -3.2638440000  0.2481130000  -0.2208510000
C  0.2128920000  0.6595050000  -0.3971790000
C  -0.9478830000  1.2623840000  0.4130560000
C  1.4477520000  1.3838660000  -0.1563470000
C  -2.2399570000  0.6836540000  0.0648030000
H  -0.0121940000  0.6678670000  -1.4601280000
H  -0.9829690000  2.3367930000  0.2164440000
H  -0.7634640000  1.1310300000  1.4791620000