8
charge=0, multiplicity=1, basis=AUG-PC-3, multipole_field={'X': 0.004}, AUX_BASIS_CORR=rimp2-def2-QZVPPD, SCF_ALGORITHM=GDM, xc_grid=000099000590, mem_total=3750, num_basis=595, num_pairs=173339, num_threads=1
C 0.838039 1.595359 0.000000
O 0.838039 -0.743500 1.259473
O 0.838039 -0.743500 -1.259473
S 0.445322 -0.156189 0.000000
Cl -1.666500 -0.052456 0.000000
H 0.421587 2.033909 0.900953
H 1.925327 1.646800 0.000000
H 0.421587 2.033909 -0.900953