12
charge=0, multiplicity=1, basis=AUG-PC-3, AUX_BASIS_CORR=rimp2-def2-QZVPPD, SCF_ALGORITHM=GDM, xc_grid=000099000590, mem_total=15000, num_basis=795, num_pairs=301169, num_threads=4
C  0.4845280000  0.1655920000  0.0000160000
C  1.8124820000  -0.5659340000  -0.0000090000
C  -1.9751160000  -0.1019150000  -0.0000160000
N  -0.6236410000  -0.6290720000  0.0000380000
O  0.4259550000  1.3841690000  0.0000000000
H  2.3785590000  -0.2584440000  -0.8784040000
H  2.3788380000  -0.2579780000  0.8780380000
H  1.7168560000  -1.6512940000  0.0002880000
H  -2.5231860000  -0.4236640000  -0.8870980000
H  -1.9067420000  0.9822650000  -0.0008500000
H  -2.5228010000  -0.4222850000  0.8878110000
H  -0.4950400000  -1.6248990000  0.0000050000