11
charge=0, multiplicity=1, basis=AUG-PC-3, AUX_BASIS_CORR=rimp2-def2-QZVPPD, SCF_ALGORITHM=GDM, xc_grid=000099000590, mem_total=7500, num_basis=784, num_pairs=298286, num_threads=2
C  -1.5899680000  0.5919980000  0.3180030000
C  -1.4826260000  -0.7315950000  0.2405410000
C  -0.4097790000  1.2970500000  -0.2713020000
N  -0.3197370000  -1.2005230000  -0.3919510000
O  1.6670320000  -0.0034150000  0.8977930000
S  0.9362970000  0.0115800000  -0.4000060000
H  -2.4295400000  1.1122210000  0.7491960000
H  -2.2063290000  -1.4576240000  0.5809610000
H  -0.5831450000  1.6639100000  -1.2867600000
H  0.0101730000  2.0993260000  0.3341850000
H  0.0242280000  -2.1168440000  -0.1396140000