7
charge=0, multiplicity=1, basis=AUG-PC-3, AUX_BASIS_CORR=rimp2-def2-QZVPPD, SCF_ALGORITHM=GDM, xc_grid=000099000590, mem_total=3750, num_basis=545, num_pairs=144171, num_threads=1
F  2.2081320000  0.0114200000  0.0000000000
N  -2.5228660000  -0.2160970000  0.0000010000
C  -0.0545510000  0.5052680000  0.0000000000
C  0.9348960000  -0.3815780000  0.0000000000
C  -1.4125450000  0.0930560000  0.0000000000
H  0.1583930000  1.5659500000  0.0000010000
H  0.8216830000  -1.4565250000  0.0000000000