10
charge=0, multiplicity=1, basis=AUG-PC-3, multipole_field={'Y': 0.004}, AUX_BASIS_CORR=rimp2-def2-QZVPPD, SCF_ALGORITHM=GDM, xc_grid=000099000590, mem_total=7500, num_basis=777, num_pairs=293413, num_threads=2
Br -1.679281 -0.222549 -0.171503
O 0.904198 -0.596180 0.859473
O 1.724404 0.868550 -0.607082
O 2.767002 -1.118360 -0.322274
C -0.059419 0.412716 0.795866
C 1.898097 -0.357530 -0.066646
C 0.648879 1.543670 0.054380
H -0.412430 0.651047 1.790346
H 1.064262 2.270895 0.754952
H 0.032846 2.042043 -0.685213