10
charge=0, multiplicity=1, basis=AUG-PC-3, multipole_field={'Z': -0.004}, AUX_BASIS_CORR=rimp2-def2-QZVPPD, SCF_ALGORITHM=GDM, xc_grid=000099000590, mem_total=7500, num_basis=773, num_pairs=286796, num_threads=2
Cl -2.008972 -0.645633 -0.000016
S 0.916995 -1.382670 0.000044
N 1.562136 1.012518 -0.000064
N 2.104548 -0.138903 0.000000
C -0.342527 -0.225321 -0.000029
C 0.192585 1.037355 -0.000081
C -0.528302 2.343259 0.000042
H -0.251761 2.929510 -0.876767
H -1.605449 2.196556 -0.004895
H -0.259520 2.925361 0.882074