10
charge=0, multiplicity=1, basis=AUG-PC-3, AUX_BASIS_CORR=rimp2-def2-QZVPPD, SCF_ALGORITHM=GDM, xc_grid=000099000590, mem_total=7500, num_basis=656, num_pairs=209373, num_threads=2
C  -0.2596000000  -0.7858870000  1.3661000000
C  -0.2596000000  -0.7858870000  -1.3661000000
O  1.1008680000  1.0721260000  0.0000000000
S  -0.2596000000  0.4290080000  0.0000000000
H  -0.2087860000  -0.2136480000  2.2891390000
H  0.6184580000  -1.4221790000  1.2703790000
H  -1.1787480000  -1.3694150000  1.3377810000
H  -1.1787480000  -1.3694150000  -1.3377810000
H  0.6184580000  -1.4221790000  -1.2703790000
H  -0.2087860000  -0.2136480000  -2.2891390000