9
charge=0, multiplicity=1, basis=AUG-PC-3, multipole_field={'X': 0.004}, AUX_BASIS_CORR=rimp2-def2-QZVPPD, SCF_ALGORITHM=GDM, xc_grid=000099000590, mem_total=7500, num_basis=684, num_pairs=229747, num_threads=2
C 0.000000 1.283548 0.000000
N 1.195886 0.688755 0.000000
N -1.187170 0.683937 0.000000
C 1.154952 -0.633315 0.000000
C -0.067010 -1.302568 0.000000
N -1.219098 -0.643966 0.000000
H -0.131661 -2.382786 0.000000
H 2.096736 -1.170292 0.000000
H -0.020059 2.366010 0.000000