9
charge=0, multiplicity=1, basis=AUG-PC-3, AUX_BASIS_CORR=rimp2-def2-QZVPPD, SCF_ALGORITHM=GDM, xc_grid=000099000590, mem_total=7500, num_basis=684, num_pairs=226748, num_threads=2
C  -1.6123880000  0.6823590000  0.1402600000
C  -1.4888870000  -0.7793230000  0.1225200000
C  -0.4207530000  1.2652820000  -0.0056800000
N  -0.3180610000  -1.2883150000  -0.0129610000
O  1.9647660000  0.0078310000  0.5338640000
S  0.7948120000  -0.0075860000  -0.3823820000
H  -2.5597210000  1.1909710000  0.2480250000
H  -2.3501330000  -1.4350010000  0.2111000000
H  -0.1666810000  2.3110490000  -0.0637970000