9
charge=0, multiplicity=1, basis=AUG-PC-3, AUX_BASIS_CORR=rimp2-def2-QZVPPD, SCF_ALGORITHM=GDM, xc_grid=000099000590, mem_total=7500, num_basis=723, num_pairs=253330, num_threads=2
O  0.0000000000  2.2360470000  0.5974440000
C  0.0000000000  1.1299300000  0.1581730000
O  0.0000000000  0.0000000000  0.9697920000
C  0.0000000000  -1.1299300000  0.1581730000
O  0.0000000000  -2.2360470000  0.5974440000
C  0.0000000000  -0.6642420000  -1.2541130000
C  0.0000000000  0.6642420000  -1.2541130000
H  0.0000000000  -1.3528150000  -2.0830860000
H  0.0000000000  1.3528150000  -2.0830860000