8
charge=0, multiplicity=1, basis=AUG-PC-3, multipole_field={'Y': -0.004}, AUX_BASIS_CORR=rimp2-def2-QZVPPD, SCF_ALGORITHM=GDM, xc_grid=000099000590, mem_total=7500, num_basis=673, num_pairs=220772, num_threads=2
C 0.566910 -0.338873 0.000000
C -0.170872 1.010509 0.000000
H 1.633086 -0.144099 0.000000
Cl 0.182082 -1.256529 1.476575
Cl 0.182082 -1.256529 -1.476575
F -1.497512 0.873510 0.000000
F 0.182082 1.720816 1.083344
F 0.182082 1.720816 -1.083344