8
charge=0, multiplicity=1, basis=AUG-PC-3, AUX_BASIS_CORR=rimp2-def2-QZVPPD, SCF_ALGORITHM=GDM, xc_grid=000099000590, mem_total=3750, num_basis=595, num_pairs=173339, num_threads=1
C  0.8380390000  1.5953590000  0.0000000000
O  0.8380390000  -0.7435000000  1.2594730000
O  0.8380390000  -0.7435000000  -1.2594730000
S  0.4453220000  -0.1561890000  0.0000000000
Cl  -1.6665000000  -0.0524560000  0.0000000000
H  0.4215870000  2.0339090000  0.9009530000
H  1.9253270000  1.6468000000  0.0000000000
H  0.4215870000  2.0339090000  -0.9009530000