8
charge=0, multiplicity=1, basis=AUG-PC-3, multipole_field={'Z': -0.004}, AUX_BASIS_CORR=rimp2-def2-QZVPPD, SCF_ALGORITHM=GDM, xc_grid=000099000590, mem_total=3750, num_basis=595, num_pairs=172955, num_threads=1
S -1.212773 -1.207584 0.003315
S 2.042508 -0.178536 -0.008928
N -1.534033 1.415066 -0.011441
C -0.689942 0.359550 0.002786
C 0.740967 0.774182 0.022682
H -1.200704 2.364588 -0.016085
H -2.525891 1.249315 -0.027968
H 0.882911 1.856177 0.061139