6
charge=0, multiplicity=1, basis=AUG-PC-3, multipole_field={'X': -0.004}, AUX_BASIS_CORR=rimp2-def2-QZVPPD, SCF_ALGORITHM=GDM, xc_grid=000099000590, mem_total=3750, num_basis=460, num_pairs=105494, num_threads=1
Br 0.000000 1.021614 0.000000
N -0.960072 -2.658366 0.000000
C 0.820993 -0.769470 0.000000
C -0.180814 -1.812966 0.000000
H 1.439718 -0.826649 0.889758
H 1.439718 -0.826649 -0.889758