11
charge=0, multiplicity=1, basis=AUG-PC-3, AUX_BASIS_CORR=rimp2-def2-QZVPPD, SCF_ALGORITHM=GDM, xc_grid=000099000590, mem_total=15000, num_basis=823, num_pairs=303619, num_threads=4
S  -1.0857140000  0.1173940000  0.7772090000
S  1.6160550000  -1.0071930000  0.0046560000
C  -0.0922000000  -0.7044720000  -0.5474410000
C  -2.5518110000  0.2914490000  -0.0418560000
C  2.2959030000  0.5341040000  -0.1215870000
C  -3.6141990000  0.4320900000  -0.5927820000
C  2.8522470000  1.5988180000  -0.1938540000
H  -0.0960620000  -0.0913240000  -1.4423220000
H  -0.5120410000  -1.6853330000  -0.7547310000
H  -4.5510060000  0.5588160000  -1.0749990000
H  3.3340060000  2.5426880000  -0.2526630000