11
charge=0, multiplicity=1, basis=AUG-PC-3, AUX_BASIS_CORR=rimp2-def2-QZVPPD, SCF_ALGORITHM=GDM, xc_grid=000099000590, mem_total=15000, num_basis=823, num_pairs=307330, num_threads=4
O  1.1141340000  -0.6378960000  0.0003860000
O  -1.1141340000  -0.6379040000  -0.0003790000
C  -0.0000040000  0.2438360000  0.0000330000
C  2.2730100000  -0.0420460000  0.0000770000
C  -2.2730140000  -0.0420630000  -0.0001380000
C  3.3530620000  0.4744790000  -0.0001410000
C  -3.3530530000  0.4744910000  0.0001620000
H  -0.0003260000  0.8565360000  0.9035260000
H  0.0003130000  0.8566010000  -0.9034150000
H  4.3142140000  0.9205280000  -0.0004230000
H  -4.3142020000  0.9205490000  0.0002920000