9
charge=0, multiplicity=1, basis=AUG-PC-3, AUX_BASIS_CORR=rimp2-def2-QZVPPD, SCF_ALGORITHM=GDM, xc_grid=000099000590, mem_total=7500, num_basis=684, num_pairs=226920, num_threads=2
Cl  0.5515870000  1.6291150000  0.0875110000
Cl  -2.2446440000  -0.3394810000  -0.0831170000
N  2.7902320000  -1.2548670000  0.0591020000
C  0.4827580000  -0.1206090000  -0.3750060000
C  -0.5999700000  -0.8720400000  0.3954110000
C  1.7845590000  -0.7329290000  -0.1339910000
H  0.2691040000  -0.1385570000  -1.4414200000
H  -0.5280620000  -1.9331310000  0.1703990000
H  -0.4947750000  -0.7145490000  1.4641130000