9
charge=0, multiplicity=1, basis=AUG-PC-3, AUX_BASIS_CORR=rimp2-def2-QZVPPD, SCF_ALGORITHM=GDM, xc_grid=000099000590, mem_total=7500, num_basis=684, num_pairs=229285, num_threads=2
S  -1.3338690000  -0.0748410000  -0.1912790000
O  -0.2808080000  -1.1892690000  0.4818170000
N  1.0334500000  -1.2189180000  -0.1642970000
C  -0.3679820000  1.3454810000  0.0764520000
C  1.5771970000  -0.0620590000  -0.1725780000
C  0.9651000000  1.2080690000  0.1744890000
H  -0.8802500000  2.2980650000  0.1105100000
H  2.5865620000  -0.0659800000  -0.5714120000
H  1.6020130000  2.0630150000  0.3467290000