11
charge=0, multiplicity=1, basis=AUG-PC-3, AUX_BASIS_CORR=rimp2-def2-QZVPPD, SCF_ALGORITHM=GDM, xc_grid=000099000590, mem_total=7500, num_basis=745, num_pairs=265249, num_threads=2
C  1.3357370000  0.6376550000  0.0000000000
C  -2.1836240000  -0.2875680000  0.0000000000
C  -0.7009400000  -0.5783250000  0.0000000000
O  2.0025330000  -0.3610660000  0.0000000000
O  0.0000000000  0.6932900000  0.0000000000
H  1.7395330000  1.6579040000  0.0000000000
H  -2.7394220000  -1.2257780000  0.0000000000
H  -2.4715470000  0.2804740000  0.8842020000
H  -2.4715470000  0.2804740000  -0.8842020000
H  -0.3921600000  -1.1407150000  -0.8808410000
H  -0.3921600000  -1.1407150000  0.8808410000