11
charge=0, multiplicity=1, basis=AUG-PC-3, AUX_BASIS_CORR=rimp2-def2-QZVPPD, SCF_ALGORITHM=GDM, xc_grid=000099000590, mem_total=15000, num_basis=823, num_pairs=314098, num_threads=4
S  3.3377770000  -0.0789990000  -0.0082410000
N  0.5852030000  0.2155690000  0.0168990000
N  -4.1725130000  -0.4260620000  -0.0090110000
C  -0.7039010000  -0.4056840000  0.0119190000
C  -1.8050580000  0.6663990000  -0.0017650000
C  -3.1343770000  0.0673270000  -0.0059120000
C  1.7625730000  0.0402620000  0.0051200000
H  -0.7978660000  -1.0462100000  -0.8669600000
H  -0.8093270000  -1.0344290000  0.8979620000
H  -1.6954650000  1.2984300000  -0.8840210000
H  -1.7060210000  1.3098210000  0.8734980000