10
charge=0, multiplicity=1, basis=AUG-PC-3, multipole_field={'Y': 0.004}, AUX_BASIS_CORR=rimp2-def2-QZVPPD, SCF_ALGORITHM=GDM, xc_grid=000099000590, mem_total=15000, num_basis=812, num_pairs=314679, num_threads=4
F 2.232197 -0.973360 0.000000
F -2.243497 -1.002072 0.000000
N -0.001263 -1.004142 0.000000
N 1.229175 1.028037 0.000001
C 1.103378 -0.278453 0.000000
C -1.109868 -0.306047 0.000000
C -1.160118 1.080797 0.000001
C 0.074651 1.704920 0.000001
H -2.093703 1.619545 0.000001
H 0.151768 2.784779 0.000002