12
charge=0, multiplicity=1, basis=AUG-PC-3, multipole_field={'X': -0.004}, AUX_BASIS_CORR=rimp2-def2-QZVPPD, SCF_ALGORITHM=GDM, xc_grid=000099000590, mem_total=15000, num_basis=795, num_pairs=301824, num_threads=4
C -2.219388 -1.031508 0.000000
H -2.709797 -0.060794 0.000000
H -2.567570 -1.583635 0.876540
H -2.567570 -1.583635 -0.876540
C 0.000000 0.174336 0.000000
H -0.192077 -1.881945 0.000000
C -0.724178 -0.938568 0.000000
H -0.067567 2.120550 0.878325
H -0.067567 2.120550 -0.878325
C -0.449589 1.597487 0.000000
Cl 1.768594 0.022859 0.000000
H -1.535021 1.669819 0.000000