10
charge=0, multiplicity=1, basis=AUG-PC-3, AUX_BASIS_CORR=rimp2-def2-QZVPPD, SCF_ALGORITHM=GDM, xc_grid=000099000590, mem_total=7500, num_basis=734, num_pairs=258932, num_threads=2
Cl  1.5717210000  -0.9099420000  0.0084960000
N  -1.1738960000  0.8208140000  -0.4483140000
N  -1.7621730000  -0.1931720000  -0.0818470000
N  -2.3963720000  -1.0966860000  0.1520960000
C  -0.0604700000  1.2859820000  0.3933330000
C  1.2956500000  0.8720780000  -0.1454880000
H  -0.1030300000  2.3764370000  0.3752860000
H  -0.1778060000  0.9587520000  1.4278910000
H  2.0904320000  1.3599640000  0.4130290000
H  1.3871470000  1.1088080000  -1.2012500000