8
charge=0, multiplicity=1, basis=AUG-PC-3, AUX_BASIS_CORR=rimp2-def2-QZVPPD, SCF_ALGORITHM=GDM, xc_grid=000099000590, mem_total=7500, num_basis=638, num_pairs=198956, num_threads=2
Br  1.8482370000  -0.0433960000  -0.0000020000
S  -2.4962290000  -0.5092770000  0.0000040000
N  -0.6464340000  1.2725010000  -0.0000020000
C  -0.0422880000  0.0528320000  0.0000000000
C  -0.8548990000  -1.0380800000  0.0000030000
C  -1.9367880000  1.1321920000  0.0000000000
H  -0.5876940000  -2.0790250000  0.0000050000
H  -2.6320610000  1.9571340000  -0.0000010000