11
charge=0, multiplicity=1, basis=AUG-PC-3, multipole_field={'X': -0.004}, AUX_BASIS_CORR=rimp2-def2-QZVPPD, SCF_ALGORITHM=GDM, xc_grid=000099000590, mem_total=15000, num_basis=823, num_pairs=322094, num_threads=4
S -0.180530 -1.510125 0.096697
S -0.180530 1.510125 -0.096698
F 1.690299 -0.019073 -1.077617
F 1.690298 0.019073 1.077618
C 0.856748 0.000000 0.000000
C -1.750263 -0.681445 -0.334640
C -1.750262 0.681445 0.334641
H -2.551770 -1.315256 0.043945
H -1.841107 -0.594140 -1.415457
H -2.551770 1.315257 -0.043944
H -1.841105 0.594141 1.415458