12
charge=0, multiplicity=1, basis=AUG-PC-3, multipole_field={'Z': 0.004}, AUX_BASIS_CORR=rimp2-def2-QZVPPD, SCF_ALGORITHM=GDM, xc_grid=000099000590, mem_total=15000, num_basis=834, num_pairs=305355, num_threads=4
C 0.000000 0.000000 0.681952
C 0.000000 0.000000 -0.681952
C 0.000000 0.000000 1.889462
C 0.000000 0.000000 -1.889462
C 0.000000 0.000000 3.341026
C 0.000000 0.000000 -3.341026
H 0.000000 1.019522 3.732419
H -0.882932 -0.509761 3.732419
H 0.882932 -0.509761 3.732419
H 0.000000 1.019522 -3.732419
H 0.882932 -0.509761 -3.732419
H -0.882932 -0.509761 -3.732419