11
charge=0, multiplicity=1, basis=AUG-PC-3, AUX_BASIS_CORR=rimp2-def2-QZVPPD, SCF_ALGORITHM=GDM, xc_grid=000099000590, mem_total=15000, num_basis=823, num_pairs=324530, num_threads=4
S  0.2122460000  1.5035950000  0.0000130000
S  2.3749670000  -0.5975310000  -0.0000050000
N  -0.2703840000  -1.0163360000  -0.0000090000
N  -2.5586160000  -1.3092030000  -0.0000110000
C  0.7937280000  -0.1644800000  -0.0000010000
C  -1.5660280000  -0.5232040000  -0.0000050000
C  -1.5501070000  0.9951820000  0.0000090000
H  -0.1125860000  -2.0137110000  -0.0000180000
H  -3.4423580000  -0.8093160000  -0.0000070000
H  -2.0515180000  1.3799000000  -0.8859460000
H  -2.0515180000  1.3798840000  0.8859700000