7
charge=0, multiplicity=1, basis=AUG-PC-3, AUX_BASIS_CORR=rimp2-def2-QZVPPD, SCF_ALGORITHM=GDM, xc_grid=000099000590, mem_total=3750, num_basis=545, num_pairs=138667, num_threads=1
O  -2.4166280000  -0.0988410000  -0.0000280000
C  0.0870330000  -0.0111000000  0.0000050000
C  -1.1170570000  -0.0024240000  -0.0000100000
C  1.4498360000  0.0014220000  0.0000130000
C  2.6551120000  0.0116690000  0.0000230000
H  -2.8324870000  0.7738560000  0.0000050000
H  3.7159650000  0.0194650000  0.0000270000