10
charge=0, multiplicity=1, basis=AUG-PC-3, AUX_BASIS_CORR=rimp2-def2-QZVPPD, SCF_ALGORITHM=GDM, xc_grid=000099000590, mem_total=7500, num_basis=773, num_pairs=288350, num_threads=2
S  -2.6419220000  -0.5760150000  0.0000040000
S  2.6362690000  -0.5923710000  -0.0000060000
O  0.0111900000  -0.7397780000  -0.0000010000
N  -0.7271980000  1.3318550000  0.0000040000
C  -1.1377060000  0.0516920000  0.0000020000
C  1.1417410000  0.0187530000  -0.0000020000
C  0.7125430000  1.4688110000  0.0000000000
H  -1.3904650000  2.0862100000  0.0000060000
H  1.0911580000  1.9838300000  0.8852640000
H  1.0911540000  1.9838330000  -0.8852620000