10
charge=0, multiplicity=1, basis=AUG-PC-3, AUX_BASIS_CORR=rimp2-def2-QZVPPD, SCF_ALGORITHM=GDM, xc_grid=000099000590, mem_total=7500, num_basis=734, num_pairs=258965, num_threads=2
S  2.1592880000  0.2258790000  -0.0000220000
S  -2.1592880000  -0.2258790000  -0.0000220000
N  0.3809050000  -1.7360900000  0.0000330000
N  -0.3809050000  1.7360900000  0.0000330000
C  0.6304280000  -0.4334400000  0.0000130000
C  -0.6304280000  0.4334400000  0.0000080000
H  1.1426400000  -2.3913070000  0.0000190000
H  -0.5867160000  -2.0403450000  0.0000350000
H  0.5867170000  2.0403450000  0.0000360000
H  -1.1426400000  2.3913070000  0.0000260000