8
charge=0, multiplicity=1, basis=AUG-PC-3, multipole_field={'Z': -0.004}, AUX_BASIS_CORR=rimp2-def2-QZVPPD, SCF_ALGORITHM=GDM, xc_grid=000099000590, mem_total=3750, num_basis=517, num_pairs=133277, num_threads=1
C 0.000000 0.557702 0.000000
C 1.131396 -0.441623 0.000000
F -1.231732 -0.112505 0.000000
H 0.016530 1.191540 0.888182
H 0.016530 1.191540 -0.888182
H 2.088160 0.083890 0.000000
H 1.087998 -1.075450 0.885435
H 1.087998 -1.075450 -0.885435