10
charge=0, multiplicity=1, basis=AUG-PC-3, AUX_BASIS_CORR=rimp2-def2-QZVPPD, SCF_ALGORITHM=GDM, xc_grid=000099000590, mem_total=7500, num_basis=734, num_pairs=259529, num_threads=2
C  1.6120950000  -0.7297970000  0.1252540000
C  1.6120950000  0.7297970000  0.1252540000
C  0.3901980000  -1.2663560000  0.0043790000
C  0.3901980000  1.2663560000  0.0043790000
O  -2.0348400000  0.0000000000  0.5036210000
S  -0.8123500000  0.0000000000  -0.3674030000
H  2.5228870000  -1.3080360000  0.1960770000
H  2.5228870000  1.3080360000  0.1960770000
H  0.1015150000  -2.3027310000  -0.0491370000
H  0.1015150000  2.3027310000  -0.0491370000