11
charge=0, multiplicity=1, basis=AUG-PC-3, AUX_BASIS_CORR=rimp2-def2-QZVPPD, SCF_ALGORITHM=GDM, xc_grid=000099000590, mem_total=7500, num_basis=784, num_pairs=298112, num_threads=2
C  -1.4706540000  0.8252170000  0.1802860000
C  -1.5533900000  -0.6624620000  0.2946020000
C  -0.3065110000  1.2830310000  -0.2521800000
N  -0.3569430000  -1.1535140000  -0.3884250000
O  1.7195920000  0.0030410000  0.8641170000
S  0.9447530000  -0.0191290000  -0.4147800000
H  -2.3090000000  1.4516950000  0.4542880000
H  -1.6133180000  -0.9578970000  1.3492420000
H  -2.4428830000  -1.0509710000  -0.2082600000
H  0.0041410000  2.3077540000  -0.3798150000
H  -0.0297880000  -2.0689610000  -0.1091860000