6
charge=0, multiplicity=1, basis=AUG-PC-3, multipole_field={'X': 0.004}, AUX_BASIS_CORR=rimp2-def2-QZVPPD, SCF_ALGORITHM=GDM, xc_grid=000099000590, mem_total=3750, num_basis=460, num_pairs=104965, num_threads=1
Br -1.189259 -0.038129 0.000000
F 2.886841 0.037952 0.000000
C 0.621468 0.510920 0.000000
C 1.605812 -0.367832 0.000000
H 0.779348 1.577216 0.000000
H 1.499472 -1.442800 0.000000