12
charge=0, multiplicity=1, basis=AUG-PC-3, AUX_BASIS_CORR=rimp2-def2-QZVPPD, SCF_ALGORITHM=GDM, xc_grid=000099000590, mem_total=15000, num_basis=834, num_pairs=330450, num_threads=4
S  0.0000000000  -0.8571070000  -0.3180040000
O  0.0000000000  -1.0536130000  1.1377610000
O  1.2799620000  0.1217800000  -0.6792640000
O  -1.2799620000  0.1217800000  -0.6792650000
C  1.7852320000  1.0459780000  0.3040350000
C  -1.7852320000  1.0459780000  0.3040350000
H  2.8378990000  1.1828150000  0.0712160000
H  -2.8379000000  1.1828150000  0.0712150000
H  1.2634930000  1.9995480000  0.2245050000
H  1.6754200000  0.6388370000  1.3071730000
H  -1.6754210000  0.6388360000  1.3071720000
H  -1.2634930000  1.9995470000  0.2245060000