5
charge=0, multiplicity=1, basis=AUG-PC-3, multipole_field={'X': -0.004}, AUX_BASIS_CORR=rimp2-def2-QZVPPD, SCF_ALGORITHM=GDM, xc_grid=000099000590, mem_total=3750, num_basis=371, num_pairs=69423, num_threads=1
Br -0.845069 -0.732631 0.000000
Cl 1.778111 0.964335 0.000000
C 0.000000 1.029529 0.000000
H -0.325234 1.535603 0.898226
H -0.325234 1.535603 -0.898226