9
charge=0, multiplicity=1, basis=AUG-PC-3, AUX_BASIS_CORR=rimp2-def2-QZVPPD, SCF_ALGORITHM=GDM, xc_grid=000099000590, mem_total=7500, num_basis=684, num_pairs=224590, num_threads=2
N  -1.6167150000  -0.1014980000  0.1153350000
N  -2.5129400000  -0.6962080000  -0.2403660000
N  2.5924450000  -0.7878500000  0.1647920000
C  -0.6011660000  0.5986140000  0.5039880000
C  0.5808730000  0.7872840000  -0.4093010000
C  1.7112580000  -0.0970970000  -0.0966530000
H  -0.6091120000  0.9272890000  1.5297190000
H  0.2893180000  0.6200710000  -1.4472020000
H  0.9344690000  1.8187200000  -0.3490500000