9
charge=0, multiplicity=1, basis=AUG-PC-3, multipole_field={'X': 0.004}, AUX_BASIS_CORR=rimp2-def2-QZVPPD, SCF_ALGORITHM=GDM, xc_grid=000099000590, mem_total=7500, num_basis=645, num_pairs=205498, num_threads=2
C 0.662598 -0.995432 0.000000
C -0.743268 -0.890370 0.000000
C 1.107645 0.307032 0.000000
N -1.142688 0.375589 0.000000
N 0.000000 1.085189 0.000000
H 1.262650 -1.887482 0.000000
H -1.475618 -1.680369 0.000000
H 2.098322 0.726839 0.000000
H -0.048386 2.088195 0.000000