12
charge=0, multiplicity=1, basis=AUG-PC-3, AUX_BASIS_CORR=rimp2-def2-QZVPPD, SCF_ALGORITHM=GDM, xc_grid=000099000590, mem_total=15000, num_basis=834, num_pairs=335690, num_threads=4
C  -1.4657970000  0.8722970000  0.1560050000
C  -1.6208550000  -0.6094550000  0.3354590000
C  -0.2768970000  1.3028840000  -0.2425950000
C  -0.3939110000  -1.2610590000  -0.3065550000
O  1.7655990000  -0.0308290000  0.8587730000
S  0.9677180000  0.0020940000  -0.4193790000
H  -2.2884040000  1.5427550000  0.3765950000
H  -1.6994120000  -0.8441090000  1.4003190000
H  -2.5404910000  -0.9707740000  -0.1292330000
H  0.0339100000  2.3273080000  -0.3797030000
H  0.0246730000  -2.0965850000  0.2488850000
H  -0.5937860000  -1.5734610000  -1.3308500000