6
charge=0, multiplicity=1, basis=AUG-PC-3, AUX_BASIS_CORR=rimp2-def2-QZVPPD, SCF_ALGORITHM=GDM, xc_grid=000099000590, mem_total=3750, num_basis=456, num_pairs=103243, num_threads=1
C  0.0000000000  0.6619460000  0.9596620000
C  0.0000000000  -0.6619460000  0.9596620000
Cl  0.0000000000  1.6600820000  -0.4498070000
Cl  0.0000000000  -1.6600820000  -0.4498070000
H  0.0000000000  1.2107520000  1.8887440000
H  0.0000000000  -1.2107520000  1.8887440000