10
charge=0, multiplicity=1, basis=AUG-PC-3, multipole_field={'Z': -0.004}, AUX_BASIS_CORR=rimp2-def2-QZVPPD, SCF_ALGORITHM=GDM, xc_grid=000099000590, mem_total=7500, num_basis=734, num_pairs=262016, num_threads=2
F -0.357644 -0.471312 1.292576
F -1.367380 -0.721561 -0.632011
O 0.767788 -0.495627 -0.659306
O 1.909998 0.165753 -0.077280
C -0.382758 -0.035679 -0.006307
C -0.624405 1.447497 -0.059329
H 2.203516 -0.500296 0.562031
H -0.689198 1.760727 -1.098748
H -1.559522 1.670655 0.449572
H 0.191108 1.972855 0.428559