12
charge=0, multiplicity=1, basis=AUG-PC-3, AUX_BASIS_CORR=rimp2-def2-QZVPPD, SCF_ALGORITHM=GDM, xc_grid=000099000590, mem_total=7500, num_basis=756, num_pairs=278655, num_threads=2
C  0.0542410000  1.1004770000  1.2688130000
C  0.0542410000  1.1004770000  -1.2688130000
C  -0.4094240000  0.3920820000  0.0000000000
S  0.0542410000  -1.3996680000  0.0000000000
H  -0.3090190000  2.1311460000  1.2805020000
H  -0.3108580000  0.5959670000  2.1615920000
H  1.1442940000  1.1313460000  1.3195560000
H  -0.3090190000  2.1311460000  -1.2805020000
H  -0.3108580000  0.5959670000  -2.1615920000
H  1.1442940000  1.1313460000  -1.3195560000
H  -1.5000710000  0.3396110000  0.0000000000
H  1.3890460000  -1.2200630000  0.0000000000