8
charge=0, multiplicity=1, basis=AUG-PC-3, AUX_BASIS_CORR=rimp2-def2-QZVPPD, SCF_ALGORITHM=GDM, xc_grid=000099000590, mem_total=3750, num_basis=556, num_pairs=149246, num_threads=1
C  -0.5915230000  -0.9100880000  0.0000000000
C  1.8064240000  0.5117420000  0.0000000000
O  -1.7515110000  -1.2059270000  0.0000000000
S  0.0000000000  0.7699970000  0.0000000000
H  0.2283730000  -1.6528410000  0.0000000000
H  2.0214410000  -0.5561700000  0.0000000000
H  2.2364330000  0.9632780000  0.8895350000
H  2.2364330000  0.9632780000  -0.8895350000