12
charge=0, multiplicity=1, basis=AUG-PC-3, multipole_field={'X': -0.004}, AUX_BASIS_CORR=rimp2-def2-QZVPPD, SCF_ALGORITHM=GDM, xc_grid=000099000590, mem_total=7500, num_basis=756, num_pairs=278655, num_threads=2
C 0.054241 1.100477 1.268813
C 0.054241 1.100477 -1.268813
C -0.409424 0.392082 0.000000
S 0.054241 -1.399668 0.000000
H -0.309019 2.131146 1.280502
H -0.310858 0.595967 2.161592
H 1.144294 1.131346 1.319556
H -0.309019 2.131146 -1.280502
H -0.310858 0.595967 -2.161592
H 1.144294 1.131346 -1.319556
H -1.500071 0.339611 0.000000
H 1.389046 -1.220063 0.000000