8
charge=0, multiplicity=1, basis=AUG-PC-3, AUX_BASIS_CORR=rimp2-def2-QZVPPD, SCF_ALGORITHM=GDM, xc_grid=000099000590, mem_total=3750, num_basis=595, num_pairs=174985, num_threads=1
S  -1.2240060000  0.0490810000  -0.1073280000
O  1.2428090000  -0.7025370000  -0.2228800000
N  -0.0522320000  -1.2386250000  0.1590070000
C  0.0656580000  1.2495250000  0.1428100000
C  1.2446830000  0.6553830000  0.0127290000
H  -0.1240650000  2.2993240000  0.2774920000
H  2.2275130000  1.0985530000  0.0028180000
H  0.0417590000  -1.3219480000  1.1737040000