6
charge=0, multiplicity=1, basis=AUG-PC-3, AUX_BASIS_CORR=rimp2-def2-QZVPPD, SCF_ALGORITHM=GDM, xc_grid=000099000590, mem_total=3750, num_basis=534, num_pairs=133565, num_threads=1
C  0.0000000000  0.0000000000  0.6035070000
C  0.0000000000  0.0000000000  -0.6035070000
C  0.0000000000  0.0000000000  1.9661640000
C  0.0000000000  0.0000000000  -1.9661640000
N  0.0000000000  0.0000000000  3.1222570000
N  0.0000000000  0.0000000000  -3.1222570000