9
charge=0, multiplicity=1, basis=AUG-PC-3, AUX_BASIS_CORR=rimp2-def2-QZVPPD, SCF_ALGORITHM=GDM, xc_grid=000099000590, mem_total=7500, num_basis=723, num_pairs=251826, num_threads=2
C  0.0000000000  1.2900370000  -0.0957000000
S  0.0000000000  0.0000000000  1.1230170000
C  0.0000000000  -1.2900370000  -0.0957000000
S  0.0983800000  -2.9029760000  0.1831520000
S  -0.0983800000  2.9029760000  0.1831520000
N  0.0821420000  0.6939180000  -1.3172190000
N  -0.0821420000  -0.6939180000  -1.3172190000
H  -0.2811580000  1.1891030000  -2.1198420000
H  0.2811580000  -1.1891030000  -2.1198420000