9
charge=0, multiplicity=1, basis=AUG-PC-3, multipole_field={'Z': 0.004}, AUX_BASIS_CORR=rimp2-def2-QZVPPD, SCF_ALGORITHM=GDM, xc_grid=000099000590, mem_total=7500, num_basis=684, num_pairs=229285, num_threads=2
S -1.333869 -0.074841 -0.191279
O -0.280808 -1.189269 0.481817
N 1.033450 -1.218918 -0.164297
C -0.367982 1.345481 0.076452
C 1.577197 -0.062059 -0.172578
C 0.965100 1.208069 0.174489
H -0.880250 2.298065 0.110510
H 2.586562 -0.065980 -0.571412
H 1.602013 2.063015 0.346729