8
charge=0, multiplicity=1, basis=AUG-PC-3, multipole_field={'Z': -0.004}, AUX_BASIS_CORR=rimp2-def2-QZVPPD, SCF_ALGORITHM=GDM, xc_grid=000099000590, mem_total=3750, num_basis=556, num_pairs=149246, num_threads=1
C -0.591523 -0.910088 0.000000
C 1.806424 0.511742 0.000000
O -1.751511 -1.205927 0.000000
S 0.000000 0.769997 0.000000
H 0.228373 -1.652841 0.000000
H 2.021441 -0.556170 0.000000
H 2.236433 0.963278 0.889535
H 2.236433 0.963278 -0.889535