8
charge=0, multiplicity=1, basis=AUG-PC-3, multipole_field={'Y': -0.004}, AUX_BASIS_CORR=rimp2-def2-QZVPPD, SCF_ALGORITHM=GDM, xc_grid=000099000590, mem_total=3750, num_basis=595, num_pairs=174521, num_threads=1
C 0.639432 -1.264100 0.000000
C 1.220264 -0.033712 0.000000
C -1.203295 -0.069611 0.000000
N -0.732370 -1.277174 0.000000
S 0.000000 1.184691 0.000000
H 1.176233 -2.200416 0.000000
H 2.266607 0.216808 0.000000
H -2.254655 0.173318 0.000000