8
charge=0, multiplicity=1, basis=AUG-PC-3, AUX_BASIS_CORR=rimp2-def2-QZVPPD, SCF_ALGORITHM=GDM, xc_grid=000099000590, mem_total=3750, num_basis=556, num_pairs=151696, num_threads=1
C  -0.5210800000  0.4918110000  0.0316170000
O  -1.7579600000  -0.1262440000  -0.0645180000
O  0.4691470000  -0.5355510000  -0.1260380000
O  1.7523620000  0.1374070000  -0.0418740000
H  -1.8978230000  -0.6853610000  0.7071970000
H  2.1179700000  -0.2667920000  0.7566850000
H  -0.4423570000  1.2059590000  -0.7876050000
H  -0.3597030000  0.9904340000  0.9934570000