10
charge=0, multiplicity=1, basis=AUG-PC-3, multipole_field={'Z': -0.004}, AUX_BASIS_CORR=rimp2-def2-QZVPPD, SCF_ALGORITHM=GDM, xc_grid=000099000590, mem_total=15000, num_basis=812, num_pairs=309658, num_threads=4
S -1.958243 0.228807 0.000000
S 2.220685 -0.683816 0.000001
N -0.289940 -1.729567 0.000001
N 0.650712 2.984496 0.000000
C -0.252301 0.588485 0.000000
C 0.464268 -0.591163 0.000000
C -1.558175 -1.448494 0.000000
C 0.241588 1.904998 0.000000
H 2.237266 -2.028192 0.000001
H -2.334026 -2.199110 0.000000