7
charge=0, multiplicity=1, basis=AUG-PC-3, multipole_field={'Z': 0.004}, AUX_BASIS_CORR=rimp2-def2-QZVPPD, SCF_ALGORITHM=GDM, xc_grid=000099000590, mem_total=3750, num_basis=467, num_pairs=109421, num_threads=1
O 0.000000 0.000000 0.854896
C 0.000000 0.731605 -0.373327
C 0.000000 -0.731605 -0.373327
H 0.917863 1.266951 -0.589809
H -0.917863 1.266951 -0.589809
H -0.917863 -1.266951 -0.589809
H 0.917863 -1.266951 -0.589809