6
charge=0, multiplicity=1, basis=AUG-PC-3, AUX_BASIS_CORR=rimp2-def2-QZVPPD, SCF_ALGORITHM=GDM, xc_grid=000099000590, mem_total=3750, num_basis=495, num_pairs=118924, num_threads=1
F  1.0537140000  1.1012160000  0.0000070000
O  1.1534550000  -1.1112840000  0.0000130000
C  0.4909200000  -0.1302710000  -0.0000380000
C  -0.9393980000  -0.0400280000  -0.0000630000
C  -2.1368400000  -0.0042450000  0.0000460000
H  -3.1991600000  0.0265970000  0.0001610000