9
charge=0, multiplicity=1, basis=AUG-PC-3, multipole_field={'X': 0.004}, AUX_BASIS_CORR=rimp2-def2-QZVPPD, SCF_ALGORITHM=GDM, xc_grid=000099000590, mem_total=7500, num_basis=723, num_pairs=253330, num_threads=2
O 0.000000 2.236047 0.597444
C 0.000000 1.129930 0.158173
O 0.000000 0.000000 0.969792
C 0.000000 -1.129930 0.158173
O 0.000000 -2.236047 0.597444
C 0.000000 -0.664242 -1.254113
C 0.000000 0.664242 -1.254113
H 0.000000 -1.352815 -2.083086
H 0.000000 1.352815 -2.083086