10
charge=0, multiplicity=1, basis=AUG-PC-3, AUX_BASIS_CORR=rimp2-def2-QZVPPD, SCF_ALGORITHM=GDM, xc_grid=000099000590, mem_total=7500, num_basis=734, num_pairs=261348, num_threads=2
N  -1.1397600000  -0.0580160000  0.0000000000
C  0.0000000000  0.5974940000  0.0000000000
C  0.1764430000  2.0721820000  0.0000000000
H  0.7232330000  2.4057070000  0.8829160000
H  0.7232330000  2.4057070000  -0.8829160000
H  -0.8031510000  2.5422330000  0.0000000000
N  0.9888080000  -0.3171040000  0.0000000000
N  0.4473430000  -1.5537560000  0.0000000000
N  -0.8235730000  -1.3810710000  0.0000000000
H  1.9883040000  -0.2020770000  0.0000000000