9
charge=0, multiplicity=1, basis=AUG-PC-3, multipole_field={'Y': 0.004}, AUX_BASIS_CORR=rimp2-def2-QZVPPD, SCF_ALGORITHM=GDM, xc_grid=000099000590, mem_total=7500, num_basis=762, num_pairs=261605, num_threads=2
C 0.151624 1.390687 0.000000
C 0.020289 0.194427 0.000000
C 0.300477 2.743694 0.000000
C -0.137549 -1.254142 0.000000
C 0.432336 3.940048 0.000000
H 0.548834 4.995753 0.000000
F 0.432336 -1.811612 1.085585
F 0.432336 -1.811612 -1.085585
F -1.437103 -1.608337 0.000000