9
charge=0, multiplicity=1, basis=AUG-PC-3, multipole_field={'Y': -0.004}, AUX_BASIS_CORR=rimp2-def2-QZVPPD, SCF_ALGORITHM=GDM, xc_grid=000099000590, mem_total=7500, num_basis=684, num_pairs=227970, num_threads=2
S -1.852923 -0.547135 0.000003
S 2.341496 -0.118506 0.000003
N -0.197443 -0.956196 -0.000012
C 0.689320 0.084870 -0.000004
C -0.074363 1.311044 -0.000004
C -1.409363 1.123574 0.000003
H 0.409589 2.273247 -0.000007
H 0.109128 -1.916200 0.000016
H -2.187332 1.869648 0.000005