5
charge=0, multiplicity=1, basis=AUG-PC-3, AUX_BASIS_CORR=rimp2-def2-QZVPPD, SCF_ALGORITHM=GDM, xc_grid=000099000590, mem_total=3750, num_basis=371, num_pairs=69423, num_threads=1
Br  -0.8450690000  -0.7326310000  0.0000000000
Cl  1.7781110000  0.9643350000  0.0000000000
C  0.0000000000  1.0295290000  0.0000000000
H  -0.3252340000  1.5356030000  0.8982260000
H  -0.3252340000  1.5356030000  -0.8982260000