8
charge=0, multiplicity=1, basis=AUG-PC-3, multipole_field={'X': -0.004}, AUX_BASIS_CORR=rimp2-def2-QZVPPD, SCF_ALGORITHM=GDM, xc_grid=000099000590, mem_total=3750, num_basis=634, num_pairs=182034, num_threads=1
O 3.189684 -0.076657 -0.064099
O -3.189684 0.076659 -0.064103
C 0.681541 -0.006531 -0.008790
C -0.681541 0.006524 -0.008791
C 1.886110 -0.000033 0.003758
C -1.886111 0.000032 0.003757
H 3.604742 0.550174 0.542991
H -3.604744 -0.550143 0.543017