6
charge=0, multiplicity=1, basis=AUG-PC-3, multipole_field={'Z': 0.004}, AUX_BASIS_CORR=rimp2-def2-QZVPPD, SCF_ALGORITHM=GDM, xc_grid=000099000590, mem_total=3750, num_basis=456, num_pairs=99699, num_threads=1
C 0.000000 0.000000 0.681680
C 0.000000 0.000000 -0.681680
C 0.000000 0.000000 1.885975
C 0.000000 0.000000 -1.885975
H 0.000000 0.000000 2.946942
H 0.000000 0.000000 -2.946942