9
charge=0, multiplicity=1, basis=AUG-PC-3, AUX_BASIS_CORR=rimp2-def2-QZVPPD, SCF_ALGORITHM=GDM, xc_grid=000099000590, mem_total=7500, num_basis=684, num_pairs=229747, num_threads=2
C  0.0000000000  1.2835480000  0.0000000000
N  1.1958860000  0.6887550000  0.0000000000
N  -1.1871700000  0.6839370000  0.0000000000
C  1.1549520000  -0.6333150000  0.0000000000
C  -0.0670100000  -1.3025680000  0.0000000000
N  -1.2190980000  -0.6439660000  0.0000000000
H  -0.1316610000  -2.3827860000  0.0000000000
H  2.0967360000  -1.1702920000  0.0000000000
H  -0.0200590000  2.3660100000  0.0000000000