10
charge=0, multiplicity=1, basis=AUG-PC-3, AUX_BASIS_CORR=rimp2-def2-QZVPPD, SCF_ALGORITHM=GDM, xc_grid=000099000590, mem_total=15000, num_basis=812, num_pairs=304400, num_threads=4
S  -1.1765020000  1.1887420000  0.0000000000
S  3.4336390000  0.1445240000  0.0000000000
N  -1.4394320000  -1.3848480000  0.0000000000
N  0.7988610000  -0.6951050000  0.0000000000
C  -0.5358660000  -0.4520560000  0.0000000000
C  -2.7658080000  0.5153620000  0.0000000000
C  -2.6941960000  -0.8432690000  0.0000000000
C  1.9222530000  -0.2889410000  0.0000000000
H  -3.6398960000  1.1432560000  0.0000000000
H  -3.5485970000  -1.5024170000  0.0000000000