6
charge=0, multiplicity=1, basis=AUG-PC-3, AUX_BASIS_CORR=rimp2-def2-QZVPPD, SCF_ALGORITHM=GDM, xc_grid=000099000590, mem_total=3750, num_basis=421, num_pairs=88678, num_threads=1
C  0.4551620000  -1.1191190000  0.0000000000
C  -0.4401130000  -2.0879470000  0.0000000000
Br  0.0000000000  0.7296050000  0.0000000000
H  1.5227680000  -1.2752150000  0.0000000000
H  -0.1089560000  -3.1186130000  0.0000000000
H  -1.5041050000  -1.8999490000  0.0000000000