6
charge=0, multiplicity=1, basis=AUG-PC-3, AUX_BASIS_CORR=rimp2-def2-QZVPPD, SCF_ALGORITHM=GDM, xc_grid=000099000590, mem_total=3750, num_basis=417, num_pairs=86989, num_threads=1
O  0.0000000000  0.8029080000  0.0000000000
Cl  -0.8115520000  -0.7040770000  0.0000000000
C  1.4150820000  0.6206260000  0.0000000000
H  1.8097150000  1.6367530000  0.0000000000
H  1.7480860000  0.0927670000  0.8948900000
H  1.7480860000  0.0927670000  -0.8948900000