12
charge=0, multiplicity=1, basis=AUG-PC-3, AUX_BASIS_CORR=rimp2-def2-QZVPPD, SCF_ALGORITHM=GDM, xc_grid=000099000590, mem_total=15000, num_basis=834, num_pairs=320420, num_threads=4
S  -0.5889480000  -0.8547500000  -0.5976190000
S  0.5889320000  0.8549890000  -0.5973260000
O  -2.6967100000  0.6238680000  0.3464270000
O  2.6966970000  -0.6240320000  0.3460820000
C  -1.8552320000  -0.4357080000  0.6882860000
C  1.8552750000  0.4354530000  0.6883610000
H  -1.3328730000  -0.2625220000  1.6307300000
H  -2.4667700000  -1.3333920000  0.7699000000
H  1.3329600000  0.2619520000  1.6307710000
H  2.4668460000  1.3330870000  0.7702580000
H  -2.1641710000  1.4239110000  0.2590630000
H  2.1641190000  -1.4240190000  0.2584420000