8
charge=0, multiplicity=1, basis=AUG-PC-3, multipole_field={'Z': -0.004}, AUX_BASIS_CORR=rimp2-def2-QZVPPD, SCF_ALGORITHM=GDM, xc_grid=000099000590, mem_total=7500, num_basis=638, num_pairs=198956, num_threads=2
Br 1.848237 -0.043396 -0.000002
S -2.496229 -0.509277 0.000004
N -0.646434 1.272501 -0.000002
C -0.042288 0.052832 0.000000
C -0.854899 -1.038080 0.000003
C -1.936788 1.132192 0.000000
H -0.587694 -2.079025 0.000005
H -2.632061 1.957134 -0.000001