5
charge=0, multiplicity=1, basis=AUG-PC-3, AUX_BASIS_CORR=rimp2-def2-QZVPPD, SCF_ALGORITHM=GDM, xc_grid=000099000590, mem_total=3750, num_basis=414, num_pairs=86062, num_threads=1
C  -0.2316380000  0.5989470000  0.0000000000
H  -1.1596080000  1.1492140000  0.0000000000
Cl  1.1037710000  1.7650040000  0.0000000000
Br  -0.2316380000  -0.4964000000  1.6141500000
Br  -0.2316380000  -0.4964000000  -1.6141500000