10
charge=0, multiplicity=1, basis=AUG-PC-3, multipole_field={'Y': -0.004}, AUX_BASIS_CORR=rimp2-def2-QZVPPD, SCF_ALGORITHM=GDM, xc_grid=000099000590, mem_total=7500, num_basis=773, num_pairs=287406, num_threads=2
F 2.330214 -0.536042 0.000001
F -2.393334 -0.522974 -0.000003
N 1.036400 -0.102187 0.000000
C -1.116301 -0.113298 0.000000
C -0.028009 -0.957326 -0.000003
C 0.691209 1.205519 0.000003
C -0.693561 1.228172 0.000003
H 0.078795 -2.024555 -0.000006
H 1.428370 1.986186 0.000006
H -1.313902 2.106420 0.000004