11
charge=0, multiplicity=1, basis=AUG-PC-3, multipole_field={'Z': 0.004}, AUX_BASIS_CORR=rimp2-def2-QZVPPD, SCF_ALGORITHM=GDM, xc_grid=000099000590, mem_total=7500, num_basis=745, num_pairs=268891, num_threads=2
C 0.000000 1.419305 -0.919648
C 0.000000 -1.419305 -0.919648
O -1.263521 0.000000 0.917477
O 1.263521 0.000000 0.917477
S 0.000000 0.000000 0.188195
H 0.000000 2.292780 -0.271559
H 0.900388 1.399538 -1.527965
H -0.900388 1.399538 -1.527965
H 0.900388 -1.399538 -1.527965
H 0.000000 -2.292780 -0.271559
H -0.900388 -1.399538 -1.527965