11
charge=0, multiplicity=1, basis=AUG-PC-3, AUX_BASIS_CORR=rimp2-def2-QZVPPD, SCF_ALGORITHM=GDM, xc_grid=000099000590, mem_total=7500, num_basis=706, num_pairs=243387, num_threads=2
C  0.0000000000  0.1603910000  0.0000000000
C  1.3411660000  -0.5221970000  0.0000000000
C  -1.2041650000  -0.7501050000  0.0000000000
N  -0.0462070000  1.4304400000  0.0000000000
H  2.1393240000  0.2150750000  0.0000000000
H  1.4440830000  -1.1660520000  0.8769010000
H  1.4440830000  -1.1660520000  -0.8769010000
H  -2.1342560000  -0.1835380000  0.0000000000
H  -1.1906350000  -1.4023450000  0.8763520000
H  -1.1906350000  -1.4023450000  -0.8763520000
H  -1.0105210000  1.7636440000  0.0000000000