4
charge=0, multiplicity=1, basis=AUG-PC-3, multipole_field={'Y': -0.004}, AUX_BASIS_CORR=rimp2-def2-QZVPPD, SCF_ALGORITHM=GDM, xc_grid=000099000590, mem_total=3750, num_basis=356, num_pairs=63328, num_threads=1
Cl 0.000000 1.435076 -0.846417
C 0.000000 0.000000 0.142885
Cl 0.000000 -1.435076 -0.846417
S 0.000000 0.000000 1.745054