13
charge=0, multiplicity=1, basis=AUG-PC-3, AUX_BASIS_CORR=rimp2-def2-QZVPPD, SCF_ALGORITHM=GDM, xc_grid=000099000590, mem_total=15000, num_basis=845, num_pairs=331147, num_threads=4
C  -2.4106900000  0.7808680000  0.0000000000
C  -1.4082590000  -0.1010260000  0.0000000000
C  0.0000000000  0.2495300000  0.0000000000
C  0.9980020000  -0.6396900000  0.0000000000
C  2.4536810000  -0.3040120000  0.0000000000
H  -2.2249370000  1.8479970000  0.0000000000
H  -3.4439620000  0.4640390000  0.0000000000
H  -1.6390930000  -1.1622690000  0.0000000000
H  0.2362750000  1.3104870000  0.0000000000
H  0.7472220000  -1.6972700000  0.0000000000
H  2.6175560000  0.7734880000  0.0000000000
H  2.9552660000  -0.7252450000  0.8757170000
H  2.9552660000  -0.7252450000  -0.8757170000