6
charge=0, multiplicity=1, basis=AUG-PC-3, AUX_BASIS_CORR=rimp2-def2-QZVPPD, SCF_ALGORITHM=GDM, xc_grid=000099000590, mem_total=3750, num_basis=495, num_pairs=118883, num_threads=1
Cl  -1.3428960000  -0.6926180000  -0.0000020000
O  -0.2595670000  1.6960790000  0.0000190000
C  -0.0243060000  0.5328500000  -0.0000690000
C  1.2654350000  -0.0815910000  -0.0000880000
C  2.3559700000  -0.5802060000  0.0000920000
H  3.3231750000  -1.0204410000  0.0002750000