10
charge=0, multiplicity=1, basis=AUG-PC-3, multipole_field={'Z': -0.004}, AUX_BASIS_CORR=rimp2-def2-QZVPPD, SCF_ALGORITHM=GDM, xc_grid=000099000590, mem_total=7500, num_basis=695, num_pairs=234460, num_threads=2
S -1.756434 -0.365803 -0.000188
N 0.863151 -0.693485 0.000281
N 0.167197 1.487661 -0.000079
N 2.197899 -0.268846 0.000181
C -0.173325 0.187895 0.000004
H 0.618610 -1.671311 0.000117
H 1.137120 1.757055 0.000069
H -0.566962 2.169753 -0.000192
H 2.678241 -0.603657 0.827164
H 2.678150 -0.603667 -0.826856