10
charge=0, multiplicity=1, basis=AUG-PC-3, multipole_field={'Z': -0.004}, AUX_BASIS_CORR=rimp2-def2-QZVPPD, SCF_ALGORITHM=GDM, xc_grid=000099000590, mem_total=7500, num_basis=656, num_pairs=206000, num_threads=2
C -0.676877 1.824455 0.000000
C 0.000000 0.712806 0.000000
C 0.674729 -0.400337 0.000000
C 0.070788 -1.779546 0.000000
H -0.970419 2.308430 0.924346
H -0.970419 2.308430 -0.924346
H 1.759891 -0.339248 0.000000
H -1.016629 -1.735258 0.000000
H 0.392869 -2.343309 -0.878652
H 0.392869 -2.343309 0.878652