8
charge=0, multiplicity=1, basis=AUG-PC-3, AUX_BASIS_CORR=rimp2-def2-QZVPPD, SCF_ALGORITHM=GDM, xc_grid=000099000590, mem_total=3750, num_basis=595, num_pairs=173409, num_threads=1
Cl  1.6765460000  -0.8093240000  -0.0640420000
S  -1.9481520000  -0.4186390000  -0.2435150000
O  0.8737550000  1.6706100000  -0.3567420000
C  0.5807770000  0.6245010000  0.1105040000
C  -0.6829580000  0.3103900000  0.8678570000
H  -2.1498170000  0.6897070000  -0.9799940000
H  -1.0580180000  1.2277890000  1.3133610000
H  -0.4999590000  -0.4349860000  1.6353450000