11
charge=0, multiplicity=1, basis=AUG-PC-3, multipole_field={'Y': -0.004}, AUX_BASIS_CORR=rimp2-def2-QZVPPD, SCF_ALGORITHM=GDM, xc_grid=000099000590, mem_total=15000, num_basis=823, num_pairs=326557, num_threads=4
C 1.232892 0.302834 0.000000
C 1.206555 -1.054025 0.000000
C -1.049356 -1.149467 0.000000
C 0.000000 1.055988 0.000000
N 0.061359 -1.812046 0.000000
N -1.126414 0.202125 0.000000
O -0.144293 2.264784 0.000000
H 2.159160 0.856946 0.000000
H 2.129679 -1.620129 0.000000
H -1.994198 -1.680952 0.000000
H -2.025462 0.663333 0.000000