11
charge=0, multiplicity=1, basis=AUG-PC-3, AUX_BASIS_CORR=rimp2-def2-QZVPPD, SCF_ALGORITHM=GDM, xc_grid=000099000590, mem_total=15000, num_basis=823, num_pairs=326023, num_threads=4
C  1.2071370000  -1.5555900000  0.0000000000
C  1.2200860000  -0.1679560000  0.0000000000
C  -0.0160350000  -2.2143600000  0.0000000000
C  -1.1793060000  -0.2484240000  0.0000000000
C  0.0000000000  0.4888550000  0.0000000000
N  -1.1877380000  -1.5784850000  0.0000000000
Cl  -0.0681490000  2.2353270000  0.0000000000
H  2.1320850000  -2.1154200000  0.0000000000
H  2.1450850000  0.3902190000  0.0000000000
H  -0.0581370000  -3.2970550000  0.0000000000
H  -2.1376260000  0.2559410000  0.0000000000