10
charge=0, multiplicity=1, basis=AUG-PC-3, AUX_BASIS_CORR=rimp2-def2-QZVPPD, SCF_ALGORITHM=GDM, xc_grid=000099000590, mem_total=7500, num_basis=738, num_pairs=260523, num_threads=2
Br  -1.6119590000  -0.6767070000  -0.0604370000
S  3.1885610000  -0.4738310000  -0.2121780000
N  0.8047660000  0.6052900000  0.6832490000
C  -0.5431220000  0.9460030000  0.5045310000
C  -0.7456410000  2.0597640000  -0.5061520000
C  1.8100580000  0.1331870000  0.2525070000
H  -0.9831420000  1.1832650000  1.4667020000
H  -1.8026660000  2.3021220000  -0.5869380000
H  -0.3720120000  1.7645350000  -1.4845690000
H  -0.2017190000  2.9453800000  -0.1731080000