11
charge=0, multiplicity=1, basis=AUG-PC-3, AUX_BASIS_CORR=rimp2-def2-QZVPPD, SCF_ALGORITHM=GDM, xc_grid=000099000590, mem_total=7500, num_basis=745, num_pairs=263750, num_threads=2
H  3.1652750000  -0.9063660000  0.0000000000
C  2.2483730000  -0.3721880000  0.0000000000
C  1.2057520000  0.2283940000  0.0000000000
H  0.1146470000  2.0567700000  0.0000000000
C  0.0000000000  0.9787790000  0.0000000000
H  -2.0649690000  1.1547690000  0.0000000000
C  -1.2338300000  0.4583180000  0.0000000000
H  -0.6913200000  -1.6209290000  0.0000000000
H  -2.1837010000  -1.2444620000  0.8757750000
H  -2.1837010000  -1.2444620000  -0.8757750000
C  -1.5796660000  -0.9925230000  0.0000000000