11
charge=0, multiplicity=1, basis=AUG-PC-3, AUX_BASIS_CORR=rimp2-def2-QZVPPD, SCF_ALGORITHM=GDM, xc_grid=000099000590, mem_total=7500, num_basis=745, num_pairs=267141, num_threads=2
H  2.5629590000  -0.0975620000  0.8195890000
H  2.5629590000  -0.0975620000  -0.8195890000
N  2.2163120000  -0.5788790000  0.0000000000
H  0.4698940000  -1.2784300000  0.8743170000
H  0.4698940000  -1.2784300000  -0.8743170000
C  0.7702260000  -0.7005860000  0.0000000000
H  0.2759920000  1.2315760000  0.8787590000
H  0.2759920000  1.2315760000  -0.8787590000
C  0.0000000000  0.6444650000  0.0000000000
N  -2.5819610000  0.2747730000  0.0000000000
C  -1.4465840000  0.4590500000  0.0000000000