9
charge=0, multiplicity=1, basis=AUG-PC-3, multipole_field={'Y': 0.004}, AUX_BASIS_CORR=rimp2-def2-QZVPPD, SCF_ALGORITHM=GDM, xc_grid=000099000590, mem_total=7500, num_basis=688, num_pairs=226129, num_threads=2
Br -1.882364 0.535029 0.000000
O 2.696637 -1.863890 0.000000
O 2.849176 0.381701 0.000000
C 0.691544 -0.667087 0.000000
C 2.169010 -0.615182 0.000000
C 0.000000 0.465322 0.000000
H 0.218899 -1.637846 0.000000
H 0.473941 1.435314 0.000000
H 3.660057 -1.764272 0.000000