9
charge=0, multiplicity=1, basis=AUG-PC-3, multipole_field={'X': 0.004}, AUX_BASIS_CORR=rimp2-def2-QZVPPD, SCF_ALGORITHM=GDM, xc_grid=000099000590, mem_total=7500, num_basis=684, num_pairs=213379, num_threads=2
S 1.646373 -0.642200 -0.000046
N -3.679210 0.273566 0.000060
C 2.361907 1.048758 0.000007
C 0.007828 -0.301890 -0.000011
C -1.191000 -0.121742 0.000012
C -2.535848 0.090366 0.000037
H 2.057644 1.581413 0.895536
H 3.439906 0.904390 -0.000013
H 2.057620 1.581480 -0.895474