6
charge=0, multiplicity=1, basis=AUG-PC-3, multipole_field={'X': 0.004}, AUX_BASIS_CORR=rimp2-def2-QZVPPD, SCF_ALGORITHM=GDM, xc_grid=000099000590, mem_total=3750, num_basis=456, num_pairs=101988, num_threads=1
F 1.606461 -0.410727 0.002376
N -1.822683 -0.186473 -0.129924
C 0.603795 0.505949 0.008579
C -0.650353 0.130122 0.010605
H -2.343052 -0.348985 0.733356
H 0.923032 1.534412 0.039623