6
charge=0, multiplicity=1, basis=AUG-PC-3, multipole_field={'Z': 0.004}, AUX_BASIS_CORR=rimp2-def2-QZVPPD, SCF_ALGORITHM=GDM, xc_grid=000099000590, mem_total=3750, num_basis=456, num_pairs=101331, num_threads=1
O 0.500202 0.649433 -0.012191
O 1.498887 -0.464552 -0.099113
C -0.689930 0.150600 0.001728
C -1.824334 -0.241903 0.015562
H 1.923095 -0.355188 0.766050
H -2.830223 -0.576039 0.020646