8
charge=0, multiplicity=1, basis=AUG-PC-3, AUX_BASIS_CORR=rimp2-def2-QZVPPD, SCF_ALGORITHM=GDM, xc_grid=000099000590, mem_total=3750, num_basis=595, num_pairs=169873, num_threads=1
N  -0.0915930000  -0.5428590000  -0.0000020000
N  -1.2350250000  -0.0890210000  0.0000000000
N  -2.3267170000  0.1969790000  0.0000000000
C  0.9784350000  0.3738080000  0.0000000000
C  2.2415260000  -0.0370190000  0.0000000000
H  0.7165800000  1.4262070000  0.0000030000
H  2.4939450000  -1.0875360000  -0.0000020000
H  3.0430590000  0.6849040000  0.0000020000