12
charge=0, multiplicity=1, basis=AUG-PC-3, multipole_field={'Y': -0.004}, AUX_BASIS_CORR=rimp2-def2-QZVPPD, SCF_ALGORITHM=GDM, xc_grid=000099000590, mem_total=15000, num_basis=795, num_pairs=301169, num_threads=4
C 0.484528 0.165592 0.000016
C 1.812482 -0.565934 -0.000009
C -1.975116 -0.101915 -0.000016
N -0.623641 -0.629072 0.000038
O 0.425955 1.384169 0.000000
H 2.378559 -0.258444 -0.878404
H 2.378838 -0.257978 0.878038
H 1.716856 -1.651294 0.000288
H -2.523186 -0.423664 -0.887098
H -1.906742 0.982265 -0.000850
H -2.522801 -0.422285 0.887811
H -0.495040 -1.624899 0.000005