10
charge=0, multiplicity=1, basis=AUG-PC-3, multipole_field={'Z': -0.004}, AUX_BASIS_CORR=rimp2-def2-QZVPPD, SCF_ALGORITHM=GDM, xc_grid=000099000590, mem_total=15000, num_basis=812, num_pairs=307895, num_threads=4
O 1.086627 -0.768894 -0.000019
O -1.086627 -0.768894 -0.000018
N 3.344570 0.172429 0.000005
N -3.344570 0.172429 0.000011
C 0.000000 0.087074 -0.000001
C 2.270510 -0.244533 -0.000005
C -2.270510 -0.244533 -0.000002
C 0.000000 1.401601 0.000027
H -0.931172 1.945319 0.000038
H 0.931172 1.945319 0.000038