4
charge=0, multiplicity=1, basis=AUG-PC-3, AUX_BASIS_CORR=rimp2-def2-QZVPPD, SCF_ALGORITHM=GDM, xc_grid=000099000590, mem_total=3750, num_basis=356, num_pairs=63328, num_threads=1
Cl  0.0000000000  1.4350760000  -0.8464170000
C  0.0000000000  0.0000000000  0.1428850000
Cl  0.0000000000  -1.4350760000  -0.8464170000
S  0.0000000000  0.0000000000  1.7450540000