9
charge=0, multiplicity=1, basis=AUG-PC-3, AUX_BASIS_CORR=rimp2-def2-QZVPPD, SCF_ALGORITHM=GDM, xc_grid=000099000590, mem_total=7500, num_basis=684, num_pairs=227893, num_threads=2
F  -0.6753490000  -0.7699460000  1.0971090000
F  -0.6755150000  -0.7700810000  -1.0969100000
N  2.3219710000  0.1740000000  -0.0001890000
C  -0.2990600000  -0.0456920000  0.0000260000
C  -0.9866360000  1.2970290000  -0.0000050000
C  1.1811400000  0.0485300000  -0.0000930000
H  -2.0617140000  1.1268640000  0.0000850000
H  -0.7035520000  1.8580350000  -0.8879700000
H  -0.7034210000  1.8581430000  0.8878510000