10
charge=0, multiplicity=1, basis=AUG-PC-3, AUX_BASIS_CORR=rimp2-def2-QZVPPD, SCF_ALGORITHM=GDM, xc_grid=000099000590, mem_total=7500, num_basis=773, num_pairs=287538, num_threads=2
S  1.5352410000  1.0769740000  0.0000060000
S  -2.5780250000  -0.2323050000  0.0000050000
O  2.2146340000  -1.5154970000  -0.0000190000
N  -0.0283140000  -1.0030490000  -0.0000090000
C  -0.2795300000  1.3429850000  0.0000120000
C  -0.9539280000  -0.0116480000  0.0000020000
C  1.3383170000  -0.6987040000  -0.0000100000
H  -0.5773100000  1.9044710000  -0.8822900000
H  -0.5773060000  1.9044570000  0.8823250000
H  -0.3088670000  -1.9741110000  -0.0000170000