10
charge=0, multiplicity=1, basis=AUG-PC-3, multipole_field={'Z': -0.004}, AUX_BASIS_CORR=rimp2-def2-QZVPPD, SCF_ALGORITHM=GDM, xc_grid=000099000590, mem_total=7500, num_basis=656, num_pairs=209373, num_threads=2
C -0.259600 -0.785887 1.366100
C -0.259600 -0.785887 -1.366100
O 1.100868 1.072126 0.000000
S -0.259600 0.429008 0.000000
H -0.208786 -0.213648 2.289139
H 0.618458 -1.422179 1.270379
H -1.178748 -1.369415 1.337781
H -1.178748 -1.369415 -1.337781
H 0.618458 -1.422179 -1.270379
H -0.208786 -0.213648 -2.289139