4
charge=0, multiplicity=1, basis=AUG-PC-3, AUX_BASIS_CORR=rimp2-def2-QZVPPD, SCF_ALGORITHM=GDM, xc_grid=000099000590, mem_total=3750, num_basis=278, num_pairs=39273, num_threads=1
S  0.0000000000  0.0000000000  0.5850880000
C  0.0000000000  0.0000000000  -1.0254660000
H  0.0000000000  0.9207690000  -1.6043080000
H  0.0000000000  -0.9207690000  -1.6043080000