3
charge=0, multiplicity=1, basis=AUG-PC-3, AUX_BASIS_CORR=rimp2-def2-QZVPPD, SCF_ALGORITHM=GDM, xc_grid=000099000590, mem_total=3750, num_basis=267, num_pairs=36277, num_threads=1
C  0.0000000000  0.0000000000  -0.1519840000
F  0.0000000000  0.0000000000  1.1143580000
N  0.0000000000  0.0000000000  -1.3024740000