12
charge=0, multiplicity=1, basis=AUG-PC-3, multipole_field={'Z': 0.004}, AUX_BASIS_CORR=rimp2-def2-QZVPPD, SCF_ALGORITHM=GDM, xc_grid=000099000590, mem_total=15000, num_basis=834, num_pairs=333904, num_threads=4
C 0.000000 0.735787 -1.400081
C 0.000000 -0.735787 -1.400081
C 0.000000 1.175419 -0.125488
C 0.000000 -1.175419 -0.125488
C 0.000000 0.000000 0.758403
C 0.000000 0.000000 2.096421
H 0.000000 1.347657 -2.289398
H 0.000000 -1.347657 -2.289398
H 0.000000 2.197794 0.217520
H 0.000000 -2.197794 0.217520
H 0.000000 -0.923202 2.660823
H 0.000000 0.923202 2.660823