12
charge=0, multiplicity=1, basis=AUG-PC-3, AUX_BASIS_CORR=rimp2-def2-QZVPPD, SCF_ALGORITHM=GDM, xc_grid=000099000590, mem_total=15000, num_basis=795, num_pairs=304332, num_threads=4
C  2.1479730000  -1.0669450000  0.0000000000
H  2.5072680000  -2.0957820000  0.0000000000
H  2.5542060000  -0.5727880000  0.8828850000
H  2.5542060000  -0.5727880000  -0.8828850000
C  0.6215950000  -1.0514580000  0.0000000000
H  0.2416250000  -1.5951070000  -0.8693870000
H  0.2416250000  -1.5951070000  0.8693870000
C  0.6044860000  1.4901300000  0.0000000000
H  1.6833070000  1.5465610000  0.0000000000
C  0.0000000000  0.3127240000  0.0000000000
Cl  -1.7692410000  0.2566020000  0.0000000000
H  0.0505360000  2.4160690000  0.0000000000