12
charge=0, multiplicity=1, basis=def2-QZVPPD, AUX_BASIS_CORR=rimp2-def2-QZVPPD, SCF_ALGORITHM=GDM, xc_grid=000099000590, mem_total=3750, num_basis=622, num_pairs=180109, num_threads=1
C  -0.7358609800  -0.9927007400  0.0000000000
C  -1.4710944800  0.1812000200  0.0000000000
C  -0.7958194900  1.3982348900  0.0000000000
C  0.5915260600  1.3801807800  0.0000000000
N  1.3205218200  0.2562020700  0.0000000000
C  0.6592981400  -0.9025949200  0.0000000000
S  1.6017518500  -2.3931582700  0.0000000000
H  -2.5513042900  0.1468794800  0.0000000000
H  -1.3282569300  2.3373451100  0.0000000000
H  1.1561675800  2.3031934300  0.0000000000
H  -1.2209462200  -1.9582721900  0.0000000000
H  2.7740169600  -1.7565096600  0.0000000000