7
charge=0, multiplicity=1, basis=def2-QZVPPD, AUX_BASIS_CORR=rimp2-def2-QZVPPD, SCF_ALGORITHM=GDM, xc_grid=000099000590, mem_total=3750, num_basis=381, num_pairs=72565, num_threads=1
C  -1.0039731800  -0.2317451200  0.0000000000
N  -0.3624743300  0.9403592700  0.0000000000
N  0.8877863700  0.5242561400  0.0000000000
N  1.0529215800  -0.7911261600  0.0000000000
N  -0.1715942100  -1.2881737000  0.0000000000
H  -2.0744788600  -0.3108220200  0.0000000000
H  1.6718126300  1.1572515900  0.0000000000