16
charge=0, multiplicity=1, basis=def2-QZVPPD, mem_total=15000, AUX_BASIS_CORR=rimp2-def2-QZVPPD, SCF_ALGORITHM=GDM, xc_grid=000099000590, num_basis=861, num_pairs=315283, num_threads=4
N  2.2450066600  -0.3540895200  -0.1163318100
C  0.8781666600  -0.3649146200  -0.0567975100
C  0.5143785300  0.9833623800  -0.0755857100
N  1.6201569200  1.8049522400  -0.1452695200
C  2.6280341900  0.9639833800  -0.1684178200
C  -0.8650382700  1.2080164000  -0.0121180100
N  -1.7067482300  0.1941711200  0.0505977000
C  -1.2092727000  -1.0646988700  0.0529075000
N  0.0702697000  -1.4243315000  0.0095118900
O  -1.3558801100  2.4512533900  -0.0101014100
N  -2.1456930700  -2.0659157500  0.0574251000
H  3.6653053700  1.2472708000  -0.2225985200
H  -3.0554966400  -1.8047185300  0.3909022200
H  -1.8076970400  -2.9684546200  0.3386841200
H  -2.3164423800  2.3572959800  0.0334222000
H  2.8409504100  -1.1631822800  -0.1262304200