5
charge=0, multiplicity=1, basis=def2-QZVPPD, AUX_BASIS_CORR=rimp2-def2-QZVPPD, SCF_ALGORITHM=GDM, xc_grid=000099000590, mem_total=3750, num_basis=274, num_pairs=37804, num_threads=1
C  -0.3491274100  0.2074589400  0.0000000000
S  -1.1644280700  -1.1841743300  0.0000000000
O  0.9784893900  0.3424245000  0.0000000000
H  -0.8186600400  1.1853724300  0.0000000000
H  1.3537261200  -0.5510815400  0.0000000000