16
charge=0, multiplicity=1, basis=def2-QZVPPD, mem_total=15000, AUX_BASIS_CORR=rimp2-def2-QZVPPD, SCF_ALGORITHM=GDM, xc_grid=000099000590, num_basis=861, num_pairs=315612, num_threads=4
N  1.1430217900  -1.1752611900  0.0320612000
C  -0.1970909100  -1.1242993900  0.0791948100
C  -0.9211114700  0.0722538000  0.0586874000
C  -0.2020834200  1.2604806900  -0.0227792000
N  1.1074436800  1.2304735900  -0.0660836000
C  1.7192161300  0.0138583900  -0.0298180000
N  -2.2412760700  -0.2836134300  0.1171335100
C  -2.2558201700  -1.6493482300  0.1692080100
N  -1.0601957800  -2.1942821700  0.1479258100
O  -0.8475965600  2.4416401800  -0.0602338000
N  3.0923383300  0.0596815000  -0.0116553000
H  -3.1820040400  -2.1960673700  0.2226571200
H  3.5004131600  0.8958765600  -0.3882228300
H  3.5420599700  -0.8030694700  -0.2617977200
H  -3.0354603300  0.3312515200  0.1224775100
H  -0.1618543100  3.1204250300  -0.1087549100