7
charge=0, multiplicity=1, basis=def2-QZVPPD, AUX_BASIS_CORR=rimp2-def2-QZVPPD, SCF_ALGORITHM=GDM, xc_grid=000099000590, mem_total=3750, num_basis=381, num_pairs=72708, num_threads=1
N  -0.7221955700  0.2778438400  0.0000000000
N  0.0256487900  1.3872538200  0.0000000000
N  1.2664017800  0.9773916900  0.0000000000
N  1.3300443900  -0.3765702100  0.0000000000
C  0.0813694900  -0.7958565500  0.0000000000
H  -1.7258226400  0.3450800400  0.0000000000
H  -0.2554462300  -1.8151426200  0.0000000000