16
charge=0, multiplicity=1, basis=def2-QZVPPD, AUX_BASIS_CORR=rimp2-def2-QZVPPD, SCF_ALGORITHM=GDM, xc_grid=000099000590, mem_total=15000, num_basis=861, num_pairs=316811, num_threads=4
C  -2.8676077200  -0.1922462000  0.0277336000
N  -2.0639830600  0.9183683800  -0.0033923000
H  -2.3510649800  1.8817268500  -0.0167576000
C  -0.7743404600  0.4728426500  -0.0164978000
C  -0.8726690700  -0.9107111600  0.0100762000
N  -2.1854572700  -1.3158604900  0.0366132000
C  0.3375055200  -1.6875527100  -0.0066114000
O  0.5123286300  -2.8882040100  -0.0021619000
N  1.4572632000  -0.8090578500  -0.0433455000
H  2.3431906700  -1.2853095800  -0.1285370100
C  1.4290282000  0.5555944500  -0.0563005000
N  0.3344494200  1.2599707100  -0.0354793000
N  2.6489727900  1.1866998000  -0.1551280100
H  -3.9409590000  -0.1161181000  0.0427761000
H  3.4148112500  0.7535106700  0.3325061300
H  2.5785318900  2.1763465800  0.0145061000