5
charge=0, multiplicity=1, basis=def2-QZVPPD, AUX_BASIS_CORR=rimp2-def2-QZVPPD, SCF_ALGORITHM=GDM, xc_grid=000099000590, mem_total=3750, num_basis=274, num_pairs=37726, num_threads=1
C  -0.5491843000  0.1462658000  0.0000000000
O  -1.0335725400  -0.9564539100  0.0000000000
S  1.1792035300  0.5127560500  0.0000000000
H  -1.1479103500  1.0677498300  0.0000000000
H  1.5514636600  -0.7703177700  0.0000000000