9
charge=0, multiplicity=1, basis=def2-QZVPPD, AUX_BASIS_CORR=rimp2-def2-QZVPPD, SCF_ALGORITHM=GDM, xc_grid=000099000590, mem_total=3750, num_basis=453, num_pairs=100348, num_threads=1
C  -0.3666963900  1.0977091500  0.0000000000
C  -0.7426539900  -0.2074899500  0.0000000000
C  0.2605419600  -1.2376718000  0.0000000000
O  1.4754911800  -1.0041758700  0.0000000000
O  0.8886775800  1.5068850500  0.0000000000
H  -1.0841577700  1.9073468400  0.0000000000
H  -1.7884510100  -0.4638792000  0.0000000000
H  -0.0810084600  -2.2803568200  0.0000000000
H  1.4382569100  0.6816325900  0.0000000000