15
charge=0, multiplicity=1, basis=def2-QZVPPD, AUX_BASIS_CORR=rimp2-def2-QZVPPD, SCF_ALGORITHM=GDM, xc_grid=000099000590, mem_total=7500, num_basis=711, num_pairs=230485, num_threads=2
C  -1.3015739500  -1.7509918700  -0.3823470300
C  1.3015739500  1.7509918700  -0.3823470300
C  0.0000000000  0.0000000000  0.9662870800
C  -1.1787967300  -0.3187501200  0.0545346800
C  1.1787967300  0.3187501200  0.0545346800
O  -1.9315056000  0.5583321800  -0.3181598400
O  1.9315056000  -0.5583321800  -0.3181598400
H  -2.0573903100  -1.8459742400  -1.1539940800
H  -1.5732022800  -2.3626304100  0.4777954000
H  -0.3365210200  -2.1093836900  -0.7384998300
H  1.5732022800  2.3626304100  0.4777954000
H  0.3365210200  2.1093836900  -0.7384998300
H  2.0573903100  1.8459742400  -1.1539940800
H  0.2613990300  -0.8589786300  1.5780270100
H  -0.2613990300  0.8589786300  1.5780270100