15
charge=0, multiplicity=1, basis=def2-QZVPPD, mem_total=7500, AUX_BASIS_CORR=rimp2-def2-QZVPPD, SCF_ALGORITHM=GDM, xc_grid=000099000590, num_basis=711, num_pairs=222257, num_threads=2
C  1.5866196000  1.8694664800  -0.6021538500
C  1.0712956200  0.5429162600  -0.1658104600
C  -0.2512350100  0.2252753000  -0.0796545500
C  -0.6691772400  -1.0875101000  0.3533446000
C  -2.1444862100  -1.3705447900  0.4267425200
O  2.0271224700  -0.3244101500  0.1391448300
O  0.1516240000  -1.9676668600  0.6605456800
H  2.2005104900  2.2987677400  0.1873069200
H  0.7737932400  2.5480394600  -0.8382421200
H  2.2200019100  1.7432294600  -1.4781644700
H  -2.6007399800  -1.2181450200  -0.5501380000
H  -2.6194622200  -0.6781028200  1.1201481800
H  -2.3085490800  -2.3907774600  0.7554599200
H  -0.9894535900  0.9662903400  -0.3389453900
H  1.5521360100  -1.1568278200  0.4104162000