13
charge=0, multiplicity=1, basis=def2-QZVPPD, AUX_BASIS_CORR=rimp2-def2-QZVPPD, SCF_ALGORITHM=GDM, xc_grid=000099000590, mem_total=7500, num_basis=672, num_pairs=203809, num_threads=2
C  -0.4448316300  -0.8152579600  0.0005314000
C  -1.2182053800  0.3549223300  0.0383923000
C  -0.5270552300  1.5437893200  0.0756826100
N  0.8125399700  1.6133795200  0.0804856100
C  1.4282600200  0.4374415300  0.0430848000
N  0.8872069700  -0.7732516600  -0.0000921000
O  2.7720045200  0.4536634300  0.0438259000
N  -1.0125763700  -2.0562941500  0.0073686000
H  -2.2965262700  0.3273168200  0.0436859000
H  -1.0531061700  2.4887221900  0.1043620100
H  -1.9679156400  -2.1447030600  -0.2837605200
H  -0.3979272200  -2.8154829100  -0.2282313200
H  3.0181324400  1.3857546000  0.0746648100