16
charge=0, multiplicity=1, basis=def2-QZVPPD, AUX_BASIS_CORR=rimp2-def2-QZVPPD, SCF_ALGORITHM=GDM, xc_grid=000099000590, mem_total=7500, num_basis=741, num_pairs=250512, num_threads=2
C  -0.9959892900  1.6545911700  -1.0151381500
C  -1.2243813100  0.3012725700  -0.3962504000
O  -1.9434101700  -0.5369079000  -0.9008496400
C  -0.4645540500  0.0153247400  0.8922647900
C  0.9318238500  -0.4623767900  0.5398515700
N  1.9848146300  0.2563235600  0.6261957700
C  1.0322927600  -1.8684584000  0.0337023300
H  -1.4171570300  2.4224045300  -0.3663826000
H  -1.4658636300  1.7030107700  -1.9911657300
H  0.0718775900  1.8515490800  -1.1011121600
H  -1.0027565900  -0.7611115100  1.4319782300
H  -0.4002126500  0.9163063100  1.5006916400
H  1.7545473100  1.1784618300  0.9959458000
H  0.7704449400  -2.5643724500  0.8306594900
H  2.0434154400  -2.0695369100  -0.3030989000
H  0.3251082100  -2.0364806100  -0.7772920300