12
charge=0, multiplicity=1, basis=def2-QZVPPD, AUX_BASIS_CORR=rimp2-def2-QZVPPD, SCF_ALGORITHM=GDM, xc_grid=000099000590, mem_total=3750, num_basis=622, num_pairs=182463, num_threads=1
C  -1.3586397500  -0.0132822700  0.0000000000
C  -0.7364961000  1.2049164300  0.0000000000
C  0.6762091200  1.2970530200  0.0000000000
C  1.3906880600  0.1372036300  0.0000000000
N  0.7466534000  -1.0577776700  0.0000000000
C  -0.6201221900  -1.2394420000  0.0000000000
S  -1.2674112100  -2.7656699500  0.0000000000
H  1.2804077500  -1.9164578400  0.0000000000
H  -1.3321739600  2.1070870400  0.0000000000
H  1.1867807800  2.2457725400  0.0000000000
H  2.4685535700  0.0947627800  0.0000000000
H  -2.4344494800  -0.0941656900  0.0000000000