13
charge=0, multiplicity=1, basis=def2-QZVPPD, AUX_BASIS_CORR=rimp2-def2-QZVPPD, SCF_ALGORITHM=GDM, xc_grid=000099000590, mem_total=7500, num_basis=672, num_pairs=207125, num_threads=2
N  -0.4369333900  -1.1779214300  0.0000000000
C  -1.1880485200  -0.0008518200  0.0000000000
C  -0.3834975800  1.2084698400  0.0000000000
C  0.9577044200  1.1177023300  0.0000000000
N  1.5983678700  -0.0968411800  0.0000000000
C  0.9288566700  -1.3085274200  0.0000000000
N  -2.4638093200  -0.1189258100  0.0000000000
O  1.5073699500  -2.3758938400  0.0000000000
H  -0.8687832900  2.1699122800  0.0000000000
H  1.5994541000  1.9852321100  0.0000000000
H  -2.8932729800  0.8006395200  0.0000000000
H  -0.9582264700  -2.0418537200  0.0000000000
H  2.6008185300  -0.1611408500  0.0000000000