16
charge=0, multiplicity=1, basis=def2-QZVPPD, AUX_BASIS_CORR=rimp2-def2-QZVPPD, SCF_ALGORITHM=GDM, xc_grid=000099000590, mem_total=7500, num_basis=741, num_pairs=239595, num_threads=2
O  -0.4082222000  1.9967896200  0.6347236500
C  -1.0267193500  0.9666080400  0.3338468300
C  -0.3761586000  -0.2571950500  -0.0684565100
C  0.9839903100  -0.3824105600  -0.1512602100
C  1.6316302500  -1.6658755600  -0.5709668400
C  -2.5368096600  0.9519655400  0.3780160300
N  1.8189807700  0.6316895200  0.1379126100
H  -0.9834828400  -1.1133350200  -0.3160671200
H  1.4012337400  1.5079966800  0.4250451300
H  2.8103735400  0.5123275100  0.0697887100
H  0.8857194000  -2.4224465100  -0.7890153600
H  2.2836275000  -2.0361086800  0.2194624200
H  2.2402713000  -1.5089907400  -1.4608228100
H  -2.9025615900  1.9224401100  0.6956351500
H  -2.9377004900  0.7122578200  -0.6058828500
H  -2.8841720900  0.1842872800  1.0680411800