32
charge=-2, multiplicity=1, basis=def2-QZVPP, AUX_BASIS_CORR=rimp2-def2-QZVPPD, SCF_ALGORITHM=GDM, xc_grid=000099000590, mem_total=60000, num_basis=1535, num_pairs=719589, num_threads=16
C  -5.3715450000  -2.1361600000  0.3362780000
C  -4.6970630000  -0.7637400000  0.2620180000
O  -4.9788220000  0.0033090000  -0.7075020000
O  -3.9026130000  -0.5059870000  1.2121200000
C  2.6350570000  -0.6786550000  2.3968300000
S  2.0633230000  1.0045260000  1.9386770000
C  2.3149370000  -2.5816360000  -1.2995300000
S  0.8648200000  -2.2860950000  -0.3581370000
C  3.2409530000  -1.6144450000  -1.5072420000
S  2.9724320000  -0.0009850000  -0.9103240000
C  -0.8911250000  2.7517120000  -1.3954390000
S  0.5288320000  2.5438410000  -0.3603030000
C  -1.4893290000  1.7024190000  -2.0153710000
S  -0.8286340000  0.0700770000  -1.8966470000
W  0.6277880000  0.0331150000  0.1076080000
O  -2.3207390000  1.3866910000  1.1519380000
C  -0.6890270000  -0.8378800000  1.2975950000
C  -0.7459520000  0.4721170000  1.6059610000
H  -4.8501300000  -2.8193580000  -0.3468040000
H  -5.2508190000  -2.5256530000  1.3502800000
H  1.7785240000  -1.2982200000  2.6811240000
H  3.1176210000  -1.1444100000  1.5362160000
H  -3.0291410000  0.6181260000  1.1002770000
H  -2.1710980000  1.6996020000  0.2459450000
H  -1.1401040000  -1.7829090000  1.5729540000
H  -0.6409900000  1.0840340000  2.4878600000
H  -1.2565180000  3.7676480000  -1.5299960000
H  -2.4048910000  1.8224930000  -2.5907600000
H  3.3715800000  -0.6080850000  3.2040350000
H  2.4237800000  -3.5832470000  -1.7102290000
H  4.1911660000  -1.8502030000  -1.9818550000
H  -6.4316780000  -2.0866750000  0.0666610000