28
charge=0, multiplicity=1, basis=def2-QZVPP, AUX_BASIS_CORR=rimp2-def2-QZVPPD, SCF_ALGORITHM=GDM, xc_grid=000099000590, mem_total=30000, num_basis=1161, num_pairs=483286, num_threads=8
Mo  0.1442930000  -0.0182780000  0.1879560000
C  -1.8827440000  -1.0709870000  -0.4852430000
C  -1.0764390000  2.8090870000  -0.4886830000
H  -1.0563130000  3.5727870000  0.3100530000
H  -2.1173930000  2.7302990000  -0.8526890000
H  -0.4536430000  3.1721510000  -1.3268040000
C  1.9960840000  -2.2908430000  -0.9469240000
C  2.5567300000  1.7945090000  -0.0394090000
N  -0.6100250000  1.5538030000  0.0047190000
O  1.9369380000  0.5655670000  -0.3227240000
O  0.8330250000  -1.7663550000  -0.3607050000
H  1.7808710000  -2.6895310000  -1.9573760000
H  2.3803110000  -3.1260920000  -0.3312500000
H  2.7797900000  -1.5167650000  -1.0259800000
H  3.4704100000  1.8928330000  -0.6543070000
H  2.8543970000  1.8636200000  1.0260560000
H  1.8979370000  2.6574060000  -0.2599610000
C  -0.1344570000  -0.2842710000  2.0871060000
C  -1.8641660000  -1.3580350000  0.8847480000
H  0.2994740000  -1.1678430000  2.5782020000
H  -0.6611770000  0.3991810000  2.7627730000
H  -1.4499740000  -2.3037080000  1.2340490000
H  -2.5673490000  -0.8585780000  1.5558830000
C  -2.9303180000  -0.1741710000  -1.1051850000
H  -2.5571550000  0.3446770000  -2.0016130000
H  -3.7998220000  -0.7794140000  -1.4211290000
H  -3.2934760000  0.5825380000  -0.3931930000
H  -1.4448540000  -1.8279410000  -1.1409320000