32
charge=-2, multiplicity=1, basis=def2-QZVPP, AUX_BASIS_CORR=rimp2-def2-QZVPPD, SCF_ALGORITHM=GDM, xc_grid=000099000590, mem_total=60000, num_basis=1535, num_pairs=692761, num_threads=16
C  -4.9221770000  0.2315390000  2.1076630000
C  -4.4469660000  -0.2609500000  0.7273060000
O  -4.7860480000  -1.4456610000  0.3810450000
O  -3.7746640000  0.5346570000  0.0342720000
C  2.8538340000  2.5394830000  0.1110940000
S  1.6990140000  2.0029490000  -1.2134070000
C  2.6213880000  -0.6542550000  2.5583610000
S  1.0793190000  0.1098930000  2.2437500000
C  3.4751790000  -0.9661070000  1.5456380000
S  3.0172580000  -0.7320480000  -0.1122890000
C  -0.7198520000  -2.0608100000  -2.4345130000
S  0.4767840000  -0.7599240000  -2.4820570000
C  -1.1654230000  -2.5769960000  -1.2630230000
S  -0.4267780000  -2.1154890000  0.2805960000
W  0.5817690000  0.0741690000  -0.0567100000
O  -3.6865160000  3.1008800000  -0.9700740000
C  -0.9580240000  1.1262220000  0.7685520000
C  -1.0508460000  1.2015100000  -0.5271360000
H  -4.3990310000  -0.3380570000  2.8865500000
H  -4.6511230000  1.2853470000  2.2151830000
H  2.2866240000  2.9222590000  0.9665670000
H  3.4395580000  1.6848070000  0.4436450000
H  -3.7190980000  2.2711050000  -0.4486990000
H  -4.4326590000  3.0046690000  -1.5744450000
H  -1.4233660000  1.4432090000  1.6912610000
H  -1.6285380000  1.6624110000  -1.3157720000
H  -1.0806800000  -2.4440860000  -3.3866930000
H  -2.0065210000  -3.2653240000  -1.2129890000
H  3.5580440000  3.2880120000  -0.2668190000
H  2.8520910000  -0.8699290000  3.5995160000
H  4.4806610000  -1.3179350000  1.7669230000
H  -6.0012580000  0.1020480000  2.2412380000