28
charge=-1, multiplicity=1, basis=def2-QZVPP, AUX_BASIS_CORR=rimp2-def2-QZVPPD, SCF_ALGORITHM=GDM, xc_grid=000099000590, mem_total=30000, num_basis=1334, num_pairs=589884, num_threads=8
O  -0.8646830000  -0.6412230000  1.5010830000
Mo  0.2883090000  -0.0309230000  -0.0059930000
O  -1.1841590000  -0.8288130000  -0.8915790000
S  2.2107210000  -0.4625660000  1.3602430000
C  3.2881310000  -1.5018620000  0.4905180000
C  2.9670240000  -1.9516480000  -0.7406340000
S  1.4538190000  -1.5390490000  -1.4667520000
S  0.1629040000  2.0828150000  1.1501920000
C  0.1986740000  3.3739320000  -0.0028770000
C  0.3415250000  3.1010470000  -1.3163070000
S  0.4422370000  1.4749620000  -1.8964180000
S  -2.7027560000  -1.2772350000  0.0909080000
C  -3.3419240000  0.2997430000  0.6364650000
H  -3.3379310000  0.3140900000  1.7329420000
H  -2.6483870000  1.0797440000  0.2734510000
H  -4.3580420000  0.4598920000  0.2472810000
C  -3.5872040000  -1.4083610000  -1.4669340000
H  -3.1737180000  -2.2813090000  -1.9895930000
H  -4.6625960000  -1.5554260000  -1.2829850000
H  -3.3980300000  -0.5118240000  -2.0749070000
C  -0.7652640000  -0.4918710000  2.8774570000
H  -0.8272930000  0.5729400000  3.1814040000
H  -1.5952090000  -1.0396460000  3.3694760000
H  0.1929720000  -0.8974360000  3.2561040000
H  3.6407770000  -2.5970350000  -1.3145590000
H  4.2297280000  -1.7672320000  0.9825090000
H  0.4017740000  3.8972330000  -2.0665290000
H  0.1411660000  4.3963660000  0.3841980000