28
charge=-1, multiplicity=1, basis=def2-QZVPP, AUX_BASIS_CORR=rimp2-def2-QZVPPD, SCF_ALGORITHM=GDM, xc_grid=000099000590, mem_total=30000, num_basis=1334, num_pairs=578667, num_threads=8
O  -0.9068810000  0.0140850000  1.5478950000
Mo  0.3760530000  0.0059780000  -0.0010710000
O  -1.6631720000  -0.4055240000  -0.7259820000
S  1.9001890000  -1.2716730000  1.2621250000
C  2.4147350000  -2.6385870000  0.3217410000
C  1.9617070000  -2.7981750000  -0.9380620000
S  0.8626360000  -1.6487660000  -1.6315300000
S  1.5583940000  1.8010290000  0.9843870000
C  1.5969110000  3.1275560000  -0.1378890000
C  1.0381640000  3.0041130000  -1.3583110000
S  0.2849780000  1.5119940000  -1.8295760000
S  -2.8285590000  -0.6092820000  0.2655170000
C  -3.4714910000  1.0312040000  0.6287590000
H  -2.7004670000  1.5139750000  1.2402080000
H  -3.6068240000  1.5765560000  -0.3160000000
H  -4.4198920000  0.9379290000  1.1791010000
C  -4.0935370000  -1.0694250000  -0.9328830000
H  -3.7967700000  -2.0463380000  -1.3379420000
H  -5.0689610000  -1.1525990000  -0.4291860000
H  -4.1235040000  -0.3297310000  -1.7457770000
C  -0.6091780000  0.1039750000  2.9015110000
H  -0.0605340000  1.0397560000  3.1303880000
H  -1.5479580000  0.0946470000  3.4958020000
H  0.0204340000  -0.7434200000  3.2375200000
H  2.2833380000  -3.6315340000  -1.5721730000
H  3.1357340000  -3.3227620000  0.7812280000
H  1.0696670000  3.8098180000  -2.0997930000
H  2.1158720000  4.0373620000  0.1823190000