4
charge=0, multiplicity=1, basis=def2-QZVPP, AUX_BASIS_CORR=rimp2-def2-QZVPPD, SCF_ALGORITHM=GDM, xc_grid=000099000590, mem_total=3750, num_basis=174, num_pairs=15471, num_threads=1
C  0.0000000000  0.0000000000  0.5982530000
C  0.0000000000  0.0000000000  -0.5982530000
H  0.0000000000  0.0000000000  1.6621610000
H  0.0000000000  0.0000000000  -1.6621610000