28
charge=0, multiplicity=1, basis=def2-QZVPP, AUX_BASIS_CORR=rimp2-def2-QZVPPD, SCF_ALGORITHM=GDM, xc_grid=000099000590, mem_total=30000, num_basis=1161, num_pairs=484695, num_threads=8
Mo  0.1332980000  0.0198140000  0.0662070000
C  -1.0753320000  -1.3556290000  -0.9093360000
C  -2.0728440000  2.2163150000  0.6758210000
H  -2.4959150000  2.0260950000  1.6809300000
H  -2.9106080000  2.2607590000  -0.0445420000
H  -1.5923800000  3.2116960000  0.6956010000
C  3.0109070000  -1.3165410000  -0.0543960000
C  1.3667040000  2.7055740000  -0.5406840000
N  -1.1430300000  1.2002310000  0.3168470000
O  1.4914050000  1.3049400000  -0.4391220000
O  1.6154470000  -1.2475550000  -0.0632020000
H  3.3671940000  -2.0258190000  -0.8256690000
H  3.3857260000  -1.6722760000  0.9260790000
H  3.4519460000  -0.3228380000  -0.2603010000
H  2.2941310000  3.1113180000  -0.9829080000
H  1.2290380000  3.1781840000  0.4509040000
H  0.5203650000  2.9989860000  -1.1902530000
C  -0.4620620000  -1.0677270000  1.7477140000
C  -1.2450540000  -1.8512140000  0.6152570000
H  0.3216590000  -1.6744120000  2.2114740000
H  -1.1311980000  -0.6042360000  2.4789560000
H  -0.9019670000  -2.8927200000  0.6389080000
H  -2.3169940000  -1.7759340000  0.8364510000
C  -2.3728180000  -1.0720370000  -1.6386550000
H  -2.1669260000  -0.6392900000  -2.6309570000
H  -2.9581630000  -1.9964720000  -1.8017810000
H  -3.0053820000  -0.3610020000  -1.0853580000
H  -0.4396660000  -2.0673750000  -1.4518900000