25
charge=0, multiplicity=1, basis=def2-QZVPP, AUX_BASIS_CORR=rimp2-def2-QZVPPD, SCF_ALGORITHM=GDM, xc_grid=000099000590, mem_total=30000, num_basis=1272, num_pairs=543082, num_threads=8
Re  1.0758500000  0.1594190000  0.0197800000
C  2.1967500000  -0.4038780000  -1.4234820000
C  2.4029940000  -0.4363070000  1.2157110000
C  1.9224580000  1.8552930000  -0.0113960000
Br  -0.2616130000  -2.1023430000  0.0646830000
O  2.4498330000  2.8812300000  -0.0220280000
O  2.8684430000  -0.7220690000  -2.2967530000
O  3.2105990000  -0.7929960000  1.9554050000
C  -1.5396670000  1.4957970000  1.6254230000
C  -0.4287810000  0.9200880000  1.5584560000
C  -2.5916440000  1.6777550000  -0.4084320000
C  -3.3432690000  0.4871620000  -0.2702260000
O  -2.9542370000  -0.7212190000  -0.3815680000
O  -4.6081120000  0.6588640000  0.0090210000
C  -1.3266160000  1.7155940000  -1.0194320000
O  -0.6641050000  0.6976050000  -1.2657700000
H  -1.9560190000  -0.9237050000  -0.4052180000
C  -5.4259940000  -0.5042510000  0.2147600000
H  -6.4036550000  -0.1156200000  0.4821170000
H  -5.4823110000  -1.0898930000  -0.7011940000
H  -5.0175260000  -1.1161930000  1.0170610000
H  0.1380840000  0.6923020000  2.4615230000
H  -3.1551100000  2.5944250000  -0.3053520000
H  -2.3751450000  2.0188260000  2.0376130000
H  -0.8973680000  2.7106050000  -1.2087160000