28
charge=0, multiplicity=1, basis=def2-QZVPP, AUX_BASIS_CORR=rimp2-def2-QZVPPD, SCF_ALGORITHM=GDM, xc_grid=000099000590, mem_total=30000, num_basis=1342, num_pairs=623434, num_threads=8
C  -0.4057100000  1.6764640000  -0.1329050000
C  -0.9115850000  0.6696130000  0.3562540000
C  -0.0583070000  2.9837110000  -0.6501010000
H  -0.9497500000  3.6122590000  -0.5809160000
H  0.7453230000  3.4208790000  -0.0561800000
H  0.2553030000  2.9235770000  -1.6930870000
C  -1.9220790000  -0.2561890000  0.9037970000
O  -2.9807370000  -0.4482740000  -0.0402470000
C  -3.6444670000  0.6201950000  -0.5358630000
O  -3.4192910000  1.7553940000  -0.2189630000
C  -1.3150360000  -1.6593970000  1.1872540000
O  -0.2924890000  -1.7140900000  1.8135330000
C  -2.0703370000  -2.8580320000  0.7185200000
H  -2.0509730000  -2.8785900000  -0.3735340000
H  -1.5932810000  -3.7494780000  1.1178490000
H  -3.1186610000  -2.8102830000  1.0173940000
C  -4.6646670000  0.1776790000  -1.5348560000
H  -5.2687950000  1.0288880000  -1.8353510000
H  -4.1539290000  -0.2395500000  -2.4048940000
H  -5.2938400000  -0.6085040000  -1.1171330000
C  -2.4428360000  0.2668860000  2.2448350000
H  -3.2057370000  -0.4152490000  2.6244580000
H  -1.6143690000  0.3036890000  2.9505420000
H  -2.8698380000  1.2590040000  2.1242000000
Au  1.1896230000  0.0693900000  -0.1742950000
Cl  0.1863200000  -1.0923490000  -1.8852640000
Cl  3.1460880000  -1.0017250000  -0.5500790000
Cl  2.1551580000  1.2824120000  1.5070950000