25
charge=0, multiplicity=1, basis=def2-QZVPP, AUX_BASIS_CORR=rimp2-def2-QZVPPD, SCF_ALGORITHM=GDM, xc_grid=000099000590, mem_total=30000, num_basis=1272, num_pairs=563843, num_threads=8
Re  0.9959790000  0.0901700000  -0.0581850000
C  2.0143960000  -1.1610860000  -1.1238550000
C  1.9926920000  -0.4796310000  1.4525270000
C  2.3183760000  1.4232420000  -0.3675490000
Br  -0.8346890000  -1.7326890000  0.2543490000
O  3.1323680000  2.2175730000  -0.5502680000
O  2.6122390000  -1.8886930000  -1.7694250000
O  2.5689630000  -0.7891750000  2.3931690000
C  -1.5402730000  1.6857860000  1.5465940000
C  -0.2637710000  1.3185220000  1.4750950000
C  -2.0146360000  1.7730940000  0.1441380000
C  -2.9421010000  0.7118210000  -0.3948740000
O  -2.8410290000  0.2847280000  -1.5297100000
O  -3.8827620000  0.3678720000  0.4477940000
C  -0.6027350000  1.7437130000  -0.4350580000
O  -0.3828380000  0.9902640000  -1.5617100000
H  -1.2297410000  0.4765380000  -1.7365920000
C  -4.7521440000  -0.6884970000  0.0136650000
H  -5.4476610000  -0.8456930000  0.8324160000
H  -5.2791790000  -0.3956560000  -0.8932810000
H  -4.1611780000  -1.5839300000  -0.1738490000
H  0.4225540000  1.3794770000  2.3136530000
H  -2.4841030000  2.7338870000  -0.1060820000
H  -2.0908780000  1.9794920000  2.4311240000
H  -0.1284770000  2.7148770000  -0.5086690000