25
charge=0, multiplicity=1, basis=def2-QZVPP, AUX_BASIS_CORR=rimp2-def2-QZVPPD, SCF_ALGORITHM=GDM, xc_grid=000099000590, mem_total=30000, num_basis=1272, num_pairs=517301, num_threads=8
Re  -1.0726650000  0.2123760000  -0.0346360000
C  -1.0722600000  -0.2716830000  1.8572550000
C  -2.8825770000  -0.3472390000  -0.1519180000
C  -1.6718000000  1.9745350000  0.3878130000
Br  -0.1061060000  -2.2229590000  -0.2275590000
O  -2.0423550000  3.0327730000  0.6491500000
O  -1.0925390000  -0.5432390000  2.9651840000
O  -3.9773450000  -0.6807460000  -0.2337540000
C  -1.0971440000  1.3014880000  -2.0527820000
C  -0.7579430000  0.1309400000  -2.2513710000
C  3.1165480000  1.7929740000  -0.0354520000
C  3.8224950000  0.5935320000  0.0340500000
O  3.2564400000  -0.5680220000  0.0776020000
O  5.1280510000  0.6197930000  0.0559690000
C  1.7300400000  1.7574130000  -0.0543880000
O  1.0748500000  0.6752890000  -0.0010740000
H  2.2590040000  -0.4239650000  0.0519810000
C  5.8265860000  -0.6299330000  0.1271980000
H  6.8794820000  -0.3652140000  0.1367830000
H  5.5576360000  -1.1644570000  1.0370790000
H  5.5941410000  -1.2452080000  -0.7408210000
H  -0.4464570000  -0.7645430000  -2.7491960000
H  3.6562430000  2.7250320000  -0.0726750000
H  -1.3741270000  2.3151890000  -2.2547250000
H  1.1771760000  2.6995720000  -0.1131840000