36
charge=0, multiplicity=1, basis=def2-QZVPP, mem_total=60000, AUX_BASIS_CORR=rimp2-def2-QZVPPD, SCF_ALGORITHM=GDM, xc_grid=000099000590, num_basis=1744, num_pairs=878196, num_threads=16
C  2.1671280000  1.3298950000  0.0395260000
C  2.5256440000  0.7392730000  -1.1664860000
C  3.4399750000  -0.3067080000  -1.1743830000
C  3.9996330000  -0.7667550000  0.0144680000
C  3.6402450000  -0.1584360000  1.2157810000
C  2.7346680000  0.8949780000  1.2319340000
H  2.1278400000  1.0878110000  -2.1096740000
H  4.7000130000  -1.5869020000  0.0067910000
H  2.4463710000  1.3209730000  2.1835190000
C  1.1815730000  2.4212890000  0.0684990000
C  1.4410570000  3.5891230000  0.7751470000
C  -0.0631770000  2.3276780000  -0.6064740000
C  0.5287930000  4.6324140000  0.7969160000
H  2.3860850000  3.6852620000  1.2944440000
C  -0.9800260000  3.3982390000  -0.5821060000
C  -0.6819310000  4.5452600000  0.1154810000
H  0.7689690000  5.5337340000  1.3486530000
H  -1.9277770000  3.2758900000  -1.0889470000
H  -1.3871730000  5.3655240000  0.1428310000
C  -0.4589210000  1.1549630000  -1.2449970000
C  -0.9298670000  0.1151960000  -1.7361490000
H  -0.9393020000  -0.4747900000  -2.6335580000
Au  -1.9342810000  -0.7528550000  -0.0939380000
Cl  -0.3071970000  -2.3605120000  -0.1811700000
Cl  -3.0510380000  -1.9073170000  1.5209810000
Cl  -3.5355900000  0.8852040000  -0.0821210000
O  3.7335050000  -0.8204210000  -2.3873180000
O  4.1227520000  -0.5372960000  2.4168310000
C  4.6113930000  -1.9195570000  -2.4521770000
H  4.2188960000  -2.7779010000  -1.8984140000
H  4.6911770000  -2.1809060000  -3.5051030000
H  5.6054290000  -1.6636350000  -2.0713140000
C  4.9831110000  -1.6507730000  2.4725840000
H  5.2182400000  -1.7978970000  3.5243840000
H  4.4970380000  -2.5509750000  2.0843170000
H  5.9115640000  -1.4707820000  1.9209340000