25
charge=0, multiplicity=1, basis=def2-QZVPP, AUX_BASIS_CORR=rimp2-def2-QZVPPD, SCF_ALGORITHM=GDM, xc_grid=000099000590, mem_total=30000, num_basis=1272, num_pairs=554212, num_threads=8
Re  -0.6993370000  0.2699740000  -0.0169220000
C  -1.5174940000  1.1716580000  1.5119370000
C  -2.1287410000  0.7348140000  -1.2695560000
C  0.0064150000  1.9799140000  -0.5209850000
Br  -2.2939940000  -1.6926350000  0.4223770000
O  0.4019830000  3.0171460000  -0.8124790000
O  -1.9784370000  1.6836110000  2.4207360000
O  -2.9255200000  0.9856180000  -2.0400620000
C  1.6824450000  -0.8800180000  -1.6497160000
C  0.3647510000  -1.0825400000  -1.4692970000
C  2.3545590000  0.0589140000  -0.6997910000
C  3.7551520000  -0.4011790000  -0.3111100000
O  4.3917700000  -1.2168400000  -0.9164630000
O  4.1907300000  0.2500580000  0.7668530000
C  1.4382200000  0.2833720000  0.4942530000
O  0.8484130000  -0.8070360000  1.0123080000
H  0.6009010000  -1.3406200000  -0.1258350000
C  5.5124130000  -0.0889300000  1.1951570000
H  5.7005420000  0.5162940000  2.0774580000
H  5.5711540000  -1.1495480000  1.4368710000
H  6.2343490000  0.1387900000  0.4114970000
H  -0.1569950000  -1.7920050000  -2.1021930000
H  2.4939700000  1.0318930000  -1.1889730000
H  1.7549160000  1.0161720000  1.2300920000
H  2.3033980000  -1.3833260000  -2.3854600000