25
charge=0, multiplicity=1, basis=def2-QZVPP, AUX_BASIS_CORR=rimp2-def2-QZVPPD, SCF_ALGORITHM=GDM, xc_grid=000099000590, mem_total=30000, num_basis=1272, num_pairs=551996, num_threads=8
Re  0.7212600000  0.3017030000  -0.0123470000
C  1.8511410000  0.4529580000  -1.6782610000
C  1.9717280000  0.6349140000  1.4253720000
C  0.7635800000  2.2141650000  -0.1012830000
Br  1.7105120000  -2.0647410000  0.0191770000
O  0.8166080000  3.3584740000  -0.1664630000
O  2.4932830000  0.5130360000  -2.6122710000
O  2.6525730000  0.8089040000  2.3204490000
C  -1.7803950000  -0.1335900000  1.6651670000
C  -0.4709050000  -0.3712030000  1.6386320000
C  -2.3650690000  0.6528570000  0.5268210000
C  -3.4930100000  -0.1594580000  -0.0756000000
O  -3.3009430000  -1.1616320000  -0.7333390000
O  -4.6934530000  0.2977690000  0.2293760000
C  -1.2800100000  0.8769720000  -0.5121160000
O  -0.9530000000  -0.2405090000  -1.2974160000
H  -1.5663190000  -0.9770060000  -1.0499210000
C  -5.7970430000  -0.4831610000  -0.2449060000
H  -6.6884370000  0.0245490000  0.1117170000
H  -5.7876910000  -0.5271840000  -1.3332470000
H  -5.7423580000  -1.4948510000  0.1551190000
H  -0.0504390000  -0.9621730000  2.4496580000
H  -2.7582960000  1.6193460000  0.8518180000
H  -2.4540650000  -0.5012600000  2.4357090000
H  -1.4354200000  1.7417040000  -1.1516720000