28
charge=0, multiplicity=1, basis=def2-QZVPP, AUX_BASIS_CORR=rimp2-def2-QZVPPD, SCF_ALGORITHM=GDM, xc_grid=000099000590, mem_total=30000, num_basis=1342, num_pairs=625173, num_threads=8
C  -0.4720870000  -1.2701840000  -0.5442620000
C  -1.3712630000  -0.4089130000  -0.4107630000
C  -0.2831880000  -2.6794860000  -0.9283110000
H  -1.2503370000  -3.1322700000  -1.1475330000
H  0.3553400000  -2.7362030000  -1.8114120000
H  0.2078500000  -3.2202950000  -0.1183590000
C  -2.0876050000  0.8606490000  -0.2680000000
O  -3.3842720000  0.6021810000  0.3229540000
C  -3.9161620000  -0.5625320000  -0.0371070000
O  -3.2863970000  -1.3597720000  -0.6980800000
C  -1.3608060000  1.7919560000  0.7793850000
O  -0.7962500000  2.7633760000  0.3750840000
C  -1.4725510000  1.4013570000  2.2166060000
H  -1.2039140000  0.3520900000  2.3554440000
H  -0.8101370000  2.0315120000  2.8046830000
H  -2.5038690000  1.5351240000  2.5497930000
C  -5.3071530000  -0.7558120000  0.4550500000
H  -5.6637450000  -1.7411650000  0.1708820000
H  -5.3288470000  -0.6428400000  1.5398410000
H  -5.9525740000  0.0156430000  0.0325310000
C  -2.2599380000  1.5689110000  -1.5950820000
H  -2.8131890000  2.4954990000  -1.4467770000
H  -1.2756510000  1.8042210000  -1.9973370000
H  -2.7865540000  0.9242550000  -2.2982790000
Au  1.2788190000  -0.2043280000  -0.0459790000
Cl  1.1264760000  -1.1184620000  2.0513740000
Cl  3.3198420000  0.6940720000  0.4319660000
Cl  1.3724340000  0.5852360000  -2.1895710000