24
charge=1, multiplicity=1, basis=def2-QZVPP, AUX_BASIS_CORR=rimp2-def2-QZVPPD, SCF_ALGORITHM=GDM, xc_grid=000099000590, mem_total=15000, num_basis=1007, num_pairs=424913, num_threads=4
Ir  0.0503610000  0.0562360000  -0.1500760000
C  0.9788420000  -1.3027430000  -1.5173870000
C  -1.8646650000  1.0286370000  0.5632110000
C  -1.4265580000  0.1289250000  1.5552480000
C  -1.3899990000  -1.1875680000  0.9727060000
C  -1.8529480000  -1.0764240000  -0.3687760000
C  -2.1152800000  0.2913160000  -0.6405240000
H  0.3951380000  -1.3267530000  -2.4354030000
H  2.0030150000  -1.0396310000  -1.7840420000
H  0.9789350000  -2.2992170000  -1.0754820000
H  -1.9494140000  -1.8891120000  -1.0722480000
H  -2.4881150000  0.6953210000  -1.5685780000
H  -1.9821510000  2.0949880000  0.6828980000
H  -1.1791310000  0.3792560000  2.5753110000
H  -1.1449650000  -2.1052630000  1.4840150000
C  0.9816590000  2.0338470000  -0.5527950000
H  0.6092900000  0.8198030000  -1.4280690000
H  0.3626560000  2.6773740000  -1.1746500000
H  1.0037240000  2.4450020000  0.4545090000
H  1.9944910000  2.0266070000  -0.9533760000
P  1.9981290000  -0.3315890000  0.9385900000
H  2.2053830000  0.2850420000  2.1906240000
H  2.3027340000  -1.6720900000  1.2477620000
H  3.1723670000  0.0563920000  0.2636340000