59
charge=-1, multiplicity=1, basis=def2-QZVPPD, mem_total=700000, AUX_BASIS_CORR=rimp2-def2-QZVPPD, SCF_ALGORITHM=GDM, xc_grid=000099000590, num_basis=3112, num_pairs=2591504, num_threads=128
H  1.5368551000  2.1868268000  -3.2806055000
O  0.8783893000  2.1900424000  -2.5680119000
C  1.3588716000  3.0530921000  -1.5233649000
H  1.5708078000  4.0561987000  -1.9138127000
H  2.2707400000  2.6473065000  -1.0638977000
C  0.2874896000  3.1460246000  -0.4564957000
H  0.6825473000  3.7134774000  0.3917551000
O  -0.8694866000  3.8659296000  -0.9907423000
C  -2.0463442000  3.0849215000  -0.8424805000
H  -2.6385429000  3.3890637000  0.0243371000
N  -2.8922331000  3.3211549000  -2.0231112000
C  -2.3286734000  3.2436057000  -3.2756361000
H  -1.2577066000  3.0588778000  -3.2726527000
C  -3.0474869000  3.3991698000  -4.4137561000
H  -2.5704099000  3.3416145000  -5.3833247000
C  -4.4673889000  3.6468566000  -4.3388940000
O  -5.2405753000  3.8018567000  -5.2917614000
N  -4.9571514000  3.7059035000  -3.0258166000
H  -5.9529175000  3.8798529000  -2.9159117000
C  -4.2593251000  3.5437000000  -1.8459080000
O  -4.7997366000  3.6021696000  -0.7436116000
C  -0.2346472000  1.7891130000  0.0359955000
H  0.4683016000  0.9783784000  -0.1634179000
C  -1.5630515000  1.6228839000  -0.7127400000
H  -1.3665711000  1.2149690000  -1.7077490000
O  -2.4914641000  0.7695765000  -0.0706484000
H  -2.4009971000  0.9576524000  0.8843738000
O  -0.5573844000  1.8420183000  1.4446523000
P  0.6082923000  1.2561362000  2.4678373000
O  0.1026602000  1.5725170000  3.8424578000
O  1.9528299000  1.6873907000  1.9704909000
O  0.5535992000  -0.3568371000  2.1980224000
C  -0.5610903000  -1.1183987000  2.6995066000
H  -1.4558998000  -0.9028253000  2.1054224000
H  -0.7521853000  -0.8558155000  3.7453655000
C  -0.2274534000  -2.5897709000  2.6145344000
H  -1.0523440000  -3.1546301000  3.0673844000
O  -0.0970089000  -2.9944511000  1.2241268000
C  0.9081827000  -3.9778045000  1.0800913000
H  0.5164223000  -4.8575047000  0.5667236000
N  2.0073463000  -3.4227020000  0.2264569000
C  2.1054605000  -2.0835835000  -0.0461140000
H  1.3086094000  -1.4816017000  0.3732157000
C  3.1292220000  -1.5596486000  -0.7667794000
H  3.1789397000  -0.4979249000  -0.9697655000
C  4.1746086000  -2.4162675000  -1.2638035000
O  5.1576231000  -2.0751036000  -1.9340523000
N  4.0077835000  -3.7659645000  -0.9120045000
H  4.7258974000  -4.4146362000  -1.2242860000
C  2.9864661000  -4.3258297000  -0.1752481000
O  2.9290562000  -5.5251375000  0.0976209000
C  1.0881287000  -3.0185597000  3.2606483000
H  1.8593414000  -2.2600891000  3.0978762000
C  1.4211459000  -4.3081846000  2.4883923000
H  2.4880031000  -4.5509686000  2.4932040000
O  0.6473554000  -5.3923004000  3.0021533000
H  0.5484505000  -5.2096641000  3.9590314000
O  0.8827417000  -3.2486774000  4.6549412000
H  1.7459073000  -3.2033989000  5.0997864000