59
charge=-1, multiplicity=1, basis=def2-QZVPPD, mem_total=700000, AUX_BASIS_CORR=rimp2-def2-QZVPPD, SCF_ALGORITHM=GDM, xc_grid=000099000590, num_basis=3112, num_pairs=3023040, num_threads=128
H  -0.3417491000  3.1199393000  1.7764861000
O  -0.4276030000  2.1677255000  1.9388506000
C  0.2908027000  1.8388582000  3.1379405000
H  -0.2131554000  2.2526366000  4.0203966000
H  1.3168637000  2.2268519000  3.1022568000
C  0.3726234000  0.3331886000  3.2457942000
H  0.9556787000  0.0726271000  4.1381062000
O  -0.9563313000  -0.2389904000  3.3596948000
C  -1.0073392000  -1.5035780000  2.7143628000
H  -1.3095197000  -2.2864490000  3.4105555000
N  -2.0635588000  -1.4487886000  1.6648596000
C  -2.3381071000  -0.2854281000  0.9883263000
H  -1.7546952000  0.5757224000  1.3005548000
C  -3.2875963000  -0.2089548000  0.0221077000
H  -3.4740521000  0.7237987000  -0.4927689000
C  -4.0594515000  -1.3751050000  -0.3298793000
O  -4.9520783000  -1.4445792000  -1.1822814000
N  -3.6887086000  -2.5242329000  0.3870817000
H  -4.1776692000  -3.3858580000  0.1585242000
C  -2.7265674000  -2.6394574000  1.3674102000
O  -2.4668674000  -3.7017622000  1.9302740000
C  0.9813477000  -0.3654334000  2.0317917000
H  0.6639521000  0.1208837000  1.1063531000
C  0.3943565000  -1.7817462000  2.1426342000
H  0.3532068000  -2.3080725000  1.1851791000
O  1.1178621000  -2.5389834000  3.1129514000
H  2.0519871000  -2.2666626000  3.0224399000
O  2.4024506000  -0.3380569000  2.1516818000
P  3.3619306000  -0.3755475000  0.8132866000
O  3.0837150000  -1.6196675000  0.0179117000
O  4.7467108000  -0.0625632000  1.2897170000
O  2.6974604000  0.9108375000  0.0393394000
C  3.4365886000  1.4998250000  -1.0532315000
H  4.0730993000  0.7491305000  -1.5349350000
H  4.0685596000  2.3076868000  -0.6674049000
C  2.4653092000  2.0611270000  -2.0739150000
H  3.0384134000  2.6162948000  -2.8244316000
O  1.7803331000  0.9694796000  -2.7620664000
C  0.3744850000  1.0905524000  -2.6105389000
H  -0.1039827000  1.5053110000  -3.5015803000
N  -0.1737149000  -0.2704006000  -2.4456535000
C  0.5221282000  -1.2133521000  -1.7308753000
H  1.4782317000  -0.8948990000  -1.3285123000
C  0.0674554000  -2.4781999000  -1.5486215000
H  0.6611801000  -3.1985353000  -1.0020779000
C  -1.1962606000  -2.8790158000  -2.1085923000
O  -1.7277476000  -3.9921224000  -2.0219307000
N  -1.8485519000  -1.8471869000  -2.8029572000
H  -2.7535141000  -2.0705087000  -3.2088329000
C  -1.4182061000  -0.5510154000  -3.0098844000
O  -2.0776606000  0.2730001000  -3.6380715000
C  1.3635125000  2.9558242000  -1.4911115000
H  1.6420484000  3.3867609000  -0.5268383000
C  0.1651997000  2.0039751000  -1.3808369000
H  0.2613190000  1.4109537000  -0.4695637000
O  -1.0818033000  2.6653023000  -1.3413450000
H  -0.9669586000  3.4633109000  -1.8957422000
O  0.9694814000  3.9878083000  -2.4137839000
H  1.4351575000  4.8057409000  -2.1786042000