59
charge=-1, multiplicity=1, basis=def2-QZVPPD, mem_total=700000, AUX_BASIS_CORR=rimp2-def2-QZVPPD, SCF_ALGORITHM=GDM, xc_grid=000099000590, num_basis=3112, num_pairs=2460564, num_threads=128
H  -3.0902610000  4.2214318000  1.3079798000
O  -3.2303171000  3.2672637000  1.1992403000
C  -2.4863331000  2.5960688000  2.2291372000
H  -2.8639911000  2.8693824000  3.2229466000
H  -1.4190774000  2.8494133000  2.1706872000
C  -2.6114861000  1.1043600000  2.0287807000
H  -2.0083130000  0.6040558000  2.7972855000
O  -3.9945753000  0.6786238000  2.1759392000
C  -4.2888137000  -0.3857478000  1.2934222000
H  -4.6794400000  -1.2463683000  1.8395820000
N  -5.3737015000  0.0609644000  0.3581311000
C  -5.7562871000  1.3741447000  0.2629090000
H  -5.2036554000  2.0531858000  0.9021289000
C  -6.7433576000  1.7863158000  -0.5735855000
H  -7.0238442000  2.8299837000  -0.6221689000
C  -7.4203546000  0.8382792000  -1.4194462000
O  -8.3296939000  1.0776233000  -2.2244762000
N  -6.9391874000  -0.4739715000  -1.2824834000
H  -7.3666554000  -1.1841051000  -1.8716678000
C  -5.9449391000  -0.9248168000  -0.4408790000
O  -5.5901587000  -2.1029298000  -0.3888859000
C  -2.1974301000  0.5794596000  0.6538825000
H  -2.4844675000  1.2718238000  -0.1416044000
C  -2.9889827000  -0.7301449000  0.5436635000
H  -3.1758390000  -1.0361455000  -0.4891957000
O  -2.3189210000  -1.7676201000  1.2655432000
H  -1.3670958000  -1.5519196000  1.2032635000
O  -0.7928753000  0.3291974000  0.6188049000
P  0.1785465000  1.2046963000  -0.4076334000
O  0.7417439000  2.3869118000  0.3161116000
O  -0.5362322000  1.3601866000  -1.7187723000
O  1.3923704000  0.1219192000  -0.5121995000
C  1.1388211000  -1.1460620000  -1.1470378000
H  0.8198779000  -0.9820060000  -2.1811829000
H  0.3479222000  -1.6856548000  -0.6129928000
C  2.3979092000  -1.9804623000  -1.1044400000
H  2.1693575000  -2.9636865000  -1.5378439000
O  3.4385460000  -1.3498593000  -1.8960789000
C  4.7108799000  -1.5720123000  -1.3194437000
H  5.3819678000  -2.0510937000  -2.0344011000
N  5.3207392000  -0.2487414000  -0.9814686000
C  4.5910365000  0.9114293000  -0.9572992000
H  3.5403227000  0.7903130000  -1.1918815000
C  5.1465440000  2.1134903000  -0.6578368000
H  4.5468519000  3.0140776000  -0.6523103000
C  6.5481679000  2.2042236000  -0.3404676000
O  7.1788663000  3.2295644000  -0.0516172000
N  7.2101947000  0.9660815000  -0.3682785000
H  8.2024400000  0.9699643000  -0.1449804000
C  6.6761484000  -0.2683797000  -0.6685671000
O  7.3374657000  -1.3070146000  -0.6689696000
C  3.0224241000  -2.1806430000  0.2759493000
H  2.9187130000  -1.2785880000  0.8852335000
C  4.5024124000  -2.4441191000  -0.0719990000
H  5.1915428000  -2.1775561000  0.7354931000
O  4.6643216000  -3.8106214000  -0.4523832000
H  3.9926001000  -4.3009942000  0.0661325000
O  2.4061258000  -3.3033733000  0.9103082000
H  2.5114266000  -3.2097980000  1.8719227000