59
charge=-1, multiplicity=1, basis=def2-QZVPPD, mem_total=700000, AUX_BASIS_CORR=rimp2-def2-QZVPPD, SCF_ALGORITHM=GDM, xc_grid=000099000590, num_basis=3112, num_pairs=2684374, num_threads=128
H  -5.3516919000  -1.3983495000  -2.3728728000
O  -4.5198113000  -1.4285887000  -1.8738648000
C  -4.6701352000  -0.5927738000  -0.7160699000
H  -5.5827187000  -0.8511384000  -0.1650615000
H  -4.7202510000  0.4674406000  -1.0009966000
C  -3.4706049000  -0.7699951000  0.1848850000
H  -3.5632703000  -0.0666938000  1.0218790000
O  -3.4283108000  -2.1247613000  0.7256712000
C  -2.0912190000  -2.5708498000  0.8388019000
H  -1.8981701000  -2.9508571000  1.8431922000
N  -1.8704624000  -3.7103665000  -0.1114557000
C  -2.7648133000  -4.0192183000  -1.1033540000
H  -3.6373598000  -3.3769249000  -1.1442704000
C  -2.5611977000  -5.0408222000  -1.9741673000
H  -3.2861231000  -5.2624534000  -2.7461769000
C  -1.3694581000  -5.8425624000  -1.8828423000
O  -1.0589595000  -6.7966637000  -2.6082354000
N  -0.5059408000  -5.4474259000  -0.8480867000
H  0.3577085000  -5.9743550000  -0.7435964000
C  -0.6836765000  -4.4181337000  0.0517677000
O  0.1371873000  -4.1365465000  0.9248609000
C  -2.1013142000  -0.5962811000  -0.4708365000
H  -2.0859792000  -1.0397749000  -1.4695470000
C  -1.1882491000  -1.3870062000  0.4725595000
H  -0.2559360000  -1.7072536000  0.0004946000
O  -0.9276094000  -0.6317162000  1.6564693000
H  -0.9159016000  0.3051762000  1.3776680000
O  -1.7475460000  0.7835445000  -0.5231130000
P  -0.9182170000  1.3409556000  -1.8554083000
O  -1.8692494000  2.1694489000  -2.6663445000
O  -0.1306802000  0.2190199000  -2.4573513000
O  0.1534540000  2.3038829000  -1.0882999000
C  -0.3318710000  3.3665020000  -0.2421347000
H  -1.1933109000  3.0251932000  0.3401869000
H  -0.6320945000  4.2235252000  -0.8552702000
C  0.7772382000  3.7866727000  0.6922009000
H  0.4356270000  4.6603462000  1.2622142000
O  1.0570521000  2.7030758000  1.6250732000
C  2.4336495000  2.6570914000  1.9460581000
H  2.5765703000  2.6589230000  3.0277952000
N  3.0181901000  1.3780376000  1.4183477000
C  2.3172444000  0.5458016000  0.5850638000
H  1.3192475000  0.8868212000  0.3471548000
C  2.8445287000  -0.5973723000  0.0790635000
H  2.2646099000  -1.2270928000  -0.5819434000
C  4.1986237000  -0.9686772000  0.3946029000
O  4.8041028000  -1.9749043000  0.0037870000
N  4.8545590000  -0.0396421000  1.2189993000
H  5.8210272000  -0.2429881000  1.4614260000
C  4.3459759000  1.1258827000  1.7499663000
O  5.0089782000  1.8895677000  2.4525286000
C  2.1356544000  4.0888762000  0.0676418000
H  2.3563915000  3.3791565000  -0.7357461000
C  3.0835584000  3.8670466000  1.2578586000
H  4.1164517000  3.6713249000  0.9586838000
O  3.0114963000  4.9788701000  2.1513650000
H  2.8860231000  5.7642215000  1.5815050000
O  2.1475691000  5.4313043000  -0.4186136000
H  2.8694141000  5.5144796000  -1.0641125000