59
charge=-1, multiplicity=1, basis=def2-QZVPPD, mem_total=700000, AUX_BASIS_CORR=rimp2-def2-QZVPPD, SCF_ALGORITHM=GDM, xc_grid=000099000590, num_basis=3112, num_pairs=2645298, num_threads=128
H  -3.0909703000  -3.0640193000  4.2830777000
O  -2.4874842000  -2.5816225000  3.6958800000
C  -3.1404127000  -2.4172386000  2.4233931000
H  -4.1393006000  -1.9834470000  2.5537179000
H  -3.2336496000  -3.3814193000  1.9051184000
C  -2.2973051000  -1.4914586000  1.5697298000
H  -2.7197924000  -1.4677332000  0.5603092000
O  -2.3320388000  -0.1316193000  2.1015639000
C  -1.0089997000  0.3103010000  2.4136753000
H  -0.6226502000  0.9845746000  1.6454349000
N  -1.0797224000  1.1009757000  3.6426660000
C  -1.4838915000  0.4997608000  4.8132979000
H  -1.7317351000  -0.5534073000  4.7188882000
C  -1.5905023000  1.1708162000  5.9840629000
H  -1.9032764000  0.6676165000  6.8890358000
C  -1.3060069000  2.5839026000  6.0274073000
O  -1.3660578000  3.3171721000  7.0212373000
N  -0.9556151000  3.1267126000  4.7820562000
H  -0.7698331000  4.1261124000  4.7546239000
C  -0.8306925000  2.4742084000  3.5724063000
O  -0.5415912000  3.0582064000  2.5312424000
C  -0.8180130000  -1.8752267000  1.4955065000
H  -0.6552175000  -2.9341085000  1.7061118000
C  -0.1421079000  -0.9598913000  2.5187244000
H  -0.2314464000  -1.3982673000  3.5150019000
O  1.2342236000  -0.7441782000  2.2520299000
H  1.3380817000  -0.9361198000  1.2969794000
O  -0.2766916000  -1.5310148000  0.2063908000
P  0.2639473000  -2.7445392000  -0.7807218000
O  -0.7630039000  -3.8372049000  -0.8107364000
O  1.7000600000  -3.0269644000  -0.4578426000
O  0.2747633000  -1.8841257000  -2.1627411000
C  -0.9753662000  -1.4202326000  -2.7233893000
H  -1.5500259000  -0.8857629000  -1.9596467000
H  -1.5554389000  -2.2758300000  -3.0862768000
C  -0.6481820000  -0.4906372000  -3.8751073000
H  -1.5676820000  -0.2688189000  -4.4257676000
O  -0.1304568000  0.7732794000  -3.3509092000
C  1.1811540000  1.0193499000  -3.8424299000
H  1.1880550000  1.7725195000  -4.6338902000
N  1.9728979000  1.5849171000  -2.7382153000
C  1.9433356000  0.9754986000  -1.5059132000
H  1.3038042000  0.1006792000  -1.4568392000
C  2.6388892000  1.4410597000  -0.4411418000
H  2.5884489000  0.9541349000  0.5232629000
C  3.4596927000  2.6181029000  -0.5796306000
O  4.1468192000  3.1458155000  0.3028612000
N  3.4323931000  3.1735742000  -1.8670477000
H  3.9970979000  4.0058368000  -2.0175497000
C  2.7332407000  2.7305477000  -2.9717638000
O  2.7824466000  3.3033948000  -4.0583107000
C  0.4233279000  -1.0300310000  -4.8316966000
H  0.5039991000  -2.1175038000  -4.7869551000
C  1.7102660000  -0.3379083000  -4.3551697000
H  2.1396212000  -0.8976627000  -3.5208748000
O  2.6929883000  -0.2260658000  -5.3675213000
H  2.1869152000  -0.1505191000  -6.2033891000
O  0.1837201000  -0.6001200000  -6.1854722000
H  -0.0750287000  -1.3743711000  -6.7087436000