59
charge=-1, multiplicity=1, basis=def2-QZVPPD, mem_total=700000, AUX_BASIS_CORR=rimp2-def2-QZVPPD, SCF_ALGORITHM=GDM, xc_grid=000099000590, num_basis=3112, num_pairs=2539207, num_threads=128
H  -1.1031196000  -3.2486220000  -3.0511952000
O  -0.3721596000  -2.8805393000  -2.5291760000
C  -0.9355106000  -2.1974111000  -1.3964112000
H  -1.6207496000  -2.8551881000  -0.8483401000
H  -1.4826066000  -1.2995741000  -1.7161000000
C  0.1949369000  -1.7762762000  -0.4788306000
H  -0.2226592000  -1.1778703000  0.3373057000
O  0.8143244000  -2.9598732000  0.1142902000
C  2.2101099000  -2.9777334000  -0.1672344000
H  2.8058576000  -2.6384190000  0.6837088000
N  2.6029856000  -4.3691919000  -0.4184058000
C  1.8968390000  -5.1059819000  -1.3415962000
H  1.0609738000  -4.5769227000  -1.7924184000
C  2.2075684000  -6.3883293000  -1.6471671000
H  1.6305802000  -6.9436121000  -2.3747785000
C  3.3198709000  -7.0312524000  -0.9915150000
O  3.7134754000  -8.1897650000  -1.1728798000
N  3.9793111000  -6.2098382000  -0.0655721000
H  4.7681486000  -6.6203489000  0.4273760000
C  3.6930790000  -4.9022841000  0.2707456000
O  4.3511623000  -4.2718641000  1.0956139000
C  1.3243548000  -0.9966768000  -1.1650382000
H  1.0011986000  -0.5024365000  -2.0828228000
C  2.4009664000  -2.0601660000  -1.3939142000
H  2.1677064000  -2.6182250000  -2.3042784000
O  3.7093633000  -1.5393591000  -1.5250163000
H  3.7462138000  -0.7710858000  -0.9205625000
O  1.9012921000  -0.0229322000  -0.2728243000
P  1.5057650000  1.5744321000  -0.4125724000
O  1.0091429000  1.8700902000  -1.7934888000
O  2.6499596000  2.3074466000  0.2180649000
O  0.1832910000  1.6797336000  0.5469131000
C  0.3058894000  1.5172474000  1.9732221000
H  1.0844319000  2.1858342000  2.3540285000
H  0.5726069000  0.4807680000  2.2149138000
C  -1.0378792000  1.8548660000  2.5921240000
H  -0.9752507000  1.6957169000  3.6736459000
O  -1.3492241000  3.2610122000  2.3662156000
C  -2.5514665000  3.3848293000  1.6044311000
H  -3.3907364000  3.6765821000  2.2406175000
N  -2.3762971000  4.4819596000  0.6491526000
C  -1.4170757000  4.3855624000  -0.3348904000
H  -0.8471037000  3.4621796000  -0.3254456000
C  -1.1805543000  5.3728566000  -1.2303265000
H  -0.4195285000  5.2635949000  -1.9914424000
C  -1.9395174000  6.5969238000  -1.1645610000
O  -1.8278697000  7.5761252000  -1.9113211000
N  -2.8707399000  6.6246881000  -0.1158172000
H  -3.4224857000  7.4730428000  -0.0175700000
C  -3.1401948000  5.6406856000  0.8123195000
O  -3.9659421000  5.7904655000  1.7106021000
C  -2.2144671000  1.0544295000  2.0177243000
H  -1.8927662000  0.1056328000  1.5842550000
C  -2.8102833000  2.0048881000  0.9643920000
H  -2.2537288000  1.9096021000  0.0302699000
O  -4.1772781000  1.7584879000  0.6891218000
H  -4.5482595000  1.4175455000  1.5294875000
O  -3.2367164000  0.8316495000  3.0054128000
H  -3.2292352000  -0.1070997000  3.2475582000