59
charge=-1, multiplicity=1, basis=def2-QZVPPD, mem_total=700000, AUX_BASIS_CORR=rimp2-def2-QZVPPD, SCF_ALGORITHM=GDM, xc_grid=000099000590, num_basis=3112, num_pairs=2902483, num_threads=128
H  -4.9125867000  -1.9816452000  0.5349952000
O  -4.1983513000  -1.4705000000  0.1220665000
C  -4.1332613000  -1.8432635000  -1.2623770000
H  -5.0948204000  -1.6656898000  -1.7600080000
H  -3.8697532000  -2.9039409000  -1.3751360000
C  -3.0560863000  -1.0268688000  -1.9374379000
H  -2.9901488000  -1.3456493000  -2.9856327000
O  -3.3909026000  0.3866714000  -1.9078479000
C  -2.2329568000  1.1712970000  -1.7092567000
H  -2.1481524000  1.9311527000  -2.4891405000
N  -2.3756026000  1.9101917000  -0.4126974000
C  -3.3932850000  1.6455148000  0.4697602000
H  -4.0265479000  0.8117347000  0.1910135000
C  -3.5789052000  2.3665057000  1.6038919000
H  -4.3918793000  2.1339852000  2.2785323000
C  -2.6950575000  3.4564533000  1.9248776000
O  -2.7619715000  4.2052832000  2.9048900000
N  -1.6528986000  3.6192550000  0.9937924000
H  -0.9928615000  4.3721635000  1.1705513000
C  -1.4333166000  2.9011427000  -0.1633791000
O  -0.5138094000  3.1490872000  -0.9438371000
C  -1.6626652000  -1.1139133000  -1.3096019000
H  -1.7175080000  -1.1989975000  -0.2208145000
C  -1.0300859000  0.2153763000  -1.7451740000
H  -0.2046232000  0.5483607000  -1.1110083000
O  -0.6082692000  0.1302599000  -3.1111040000
H  -0.4824323000  -0.8210328000  -3.2972274000
O  -0.9861676000  -2.2478241000  -1.8614805000
P  0.0318633000  -3.1615348000  -0.9257135000
O  0.3520194000  -4.3429491000  -1.7877658000
O  -0.5282316000  -3.2779521000  0.4571899000
O  1.3479447000  -2.2049270000  -0.7536489000
C  2.1068456000  -1.7778767000  -1.9013697000
H  1.4679135000  -1.2091613000  -2.5830664000
H  2.5148216000  -2.6467322000  -2.4305084000
C  3.2341494000  -0.8893019000  -1.4124357000
H  3.7965952000  -0.5265917000  -2.2787071000
O  2.6638372000  0.2688578000  -0.7257731000
C  3.1555511000  0.3413268000  0.6095350000
H  3.9287807000  1.1059804000  0.7124467000
N  2.0613810000  0.7531028000  1.4959341000
C  0.9230852000  -0.0182602000  1.5642037000
H  0.9192211000  -0.8751469000  0.8974863000
C  -0.1137231000  0.2714705000  2.3847621000
H  -0.9904843000  -0.3611890000  2.4201796000
C  -0.0456412000  1.4269968000  3.2459197000
O  -0.9014158000  1.7963758000  4.0537462000
N  1.1335499000  2.1753834000  3.0864885000
H  1.2264974000  3.0066916000  3.6649596000
C  2.2043807000  1.9166173000  2.2545103000
O  3.1992527000  2.6371731000  2.2158627000
C  4.1959831000  -1.5561471000  -0.4185900000
H  4.1781997000  -2.6451585000  -0.4926884000
C  3.7054347000  -1.0609165000  0.9469264000
H  2.8911871000  -1.7012367000  1.2948753000
O  4.7132724000  -1.0523543000  1.9408373000
H  5.5479191000  -0.8977444000  1.4507630000
O  5.5413180000  -1.0663294000  -0.5818458000
H  6.0733983000  -1.7635767000  -0.9957236000