59
charge=-1, multiplicity=1, basis=def2-QZVPPD, mem_total=700000, AUX_BASIS_CORR=rimp2-def2-QZVPPD, SCF_ALGORITHM=GDM, xc_grid=000099000590, num_basis=3112, num_pairs=2859576, num_threads=128
H  5.2183949000  -2.8152771000  0.1943924000
O  4.5419901000  -2.1224179000  0.1309698000
C  5.1846779000  -0.9113982000  -0.3033269000
H  5.8815320000  -1.1170546000  -1.1241064000
H  5.7399464000  -0.4472676000  0.5228667000
C  4.1336676000  0.0688013000  -0.7714192000
H  4.6249236000  1.0254101000  -0.9917167000
O  3.5001167000  -0.4178411000  -1.9887828000
C  2.1311094000  -0.0580394000  -2.0103914000
H  1.8854426000  0.4892921000  -2.9213296000
N  1.3143273000  -1.3072550000  -2.0375764000
C  1.7835735000  -2.4847666000  -1.5114992000
H  2.7879007000  -2.4337862000  -1.1006222000
C  1.0509519000  -3.6265545000  -1.5136379000
H  1.4482282000  -4.5413141000  -1.0943707000
C  -0.2674490000  -3.6373192000  -2.0905498000
O  -1.0352931000  -4.6025383000  -2.1715295000
N  -0.6742715000  -2.3842337000  -2.5822848000
H  -1.5960325000  -2.3369240000  -3.0088790000
C  0.0408213000  -1.2041383000  -2.5861603000
O  -0.4118945000  -0.1491143000  -3.0287122000
C  2.9694745000  0.3173913000  0.1858474000
H  2.6788312000  -0.6111528000  0.6892890000
C  1.8391201000  0.7743608000  -0.7555710000
H  0.8432799000  0.5660724000  -0.3600631000
O  1.9557566000  2.1531457000  -1.0941029000
H  1.7551670000  2.6313501000  -0.2657297000
O  3.3694027000  1.2808141000  1.1648157000
P  2.4411772000  1.4661099000  2.5039626000
O  3.1741224000  2.4465597000  3.3672649000
O  1.9874516000  0.1372616000  3.0337548000
O  1.1589369000  2.2072949000  1.7674648000
C  -0.1436322000  2.0814381000  2.3721681000
H  -0.2124607000  2.7311008000  3.2533851000
H  -0.2976822000  1.0419301000  2.6814703000
C  -1.1923834000  2.5121203000  1.3755888000
H  -0.9893076000  3.5304176000  1.0223044000
O  -1.1832928000  1.6188266000  0.2285724000
C  -2.4962602000  1.3934872000  -0.2432317000
H  -2.5728315000  1.6410986000  -1.3031502000
N  -2.8065148000  -0.0666808000  -0.1147891000
C  -2.0275757000  -0.9250267000  0.6165271000
H  -1.1593210000  -0.4662279000  1.0714491000
C  -2.3134190000  -2.2439326000  0.7483379000
H  -1.6735504000  -2.8945206000  1.3288451000
C  -3.4835204000  -2.7954595000  0.1112013000
O  -3.8647824000  -3.9693304000  0.1536038000
N  -4.2214015000  -1.8473670000  -0.6182998000
H  -5.0595270000  -2.1805450000  -1.0887152000
C  -3.9534675000  -0.5039513000  -0.7717046000
O  -4.6662504000  0.2567699000  -1.4246162000
C  -2.6232157000  2.4286052000  1.9097442000
H  -2.7453016000  1.5578335000  2.5639167000
C  -3.4407820000  2.2453021000  0.6155364000
H  -4.4048858000  1.7548589000  0.7817198000
O  -3.6092787000  3.5058971000  -0.0294703000
H  -3.6847055000  4.1611283000  0.6938406000
O  -2.9490919000  3.6317148000  2.6028096000
H  -3.6809415000  3.4450415000  3.2146903000