59
charge=-1, multiplicity=1, basis=def2-QZVPPD, mem_total=700000, AUX_BASIS_CORR=rimp2-def2-QZVPPD, SCF_ALGORITHM=GDM, xc_grid=000099000590, num_basis=3112, num_pairs=2838600, num_threads=128
H  -0.9984031000  -3.3493668000  -3.3711335000
O  -0.3155495000  -2.9592213000  -2.8028708000
C  0.1985143000  -3.9960293000  -1.9532746000
H  0.6256520000  -4.8118687000  -2.5504156000
H  -0.5892707000  -4.4050906000  -1.3061669000
C  1.2609819000  -3.4020445000  -1.0572806000
H  1.6524669000  -4.1984388000  -0.4105729000
O  2.3519633000  -2.8533775000  -1.8413081000
C  2.9085540000  -1.7262075000  -1.1878825000
H  3.9708888000  -1.8749279000  -0.9891114000
N  2.8015122000  -0.5491455000  -2.0973216000
C  1.8906763000  -0.5020793000  -3.1245282000
H  1.2785531000  -1.3922545000  -3.2298267000
C  1.7753208000  0.5757232000  -3.9399124000
H  1.0428752000  0.5923341000  -4.7351934000
C  2.6185012000  1.7273503000  -3.7426133000
O  2.6293501000  2.7631078000  -4.4177682000
N  3.4857196000  1.6066502000  -2.6430763000
H  4.0862736000  2.4027928000  -2.4436925000
C  3.6229787000  0.5318127000  -1.7919341000
O  4.3993537000  0.5212013000  -0.8360999000
C  0.8002756000  -2.2356938000  -0.1850871000
H  0.1019634000  -1.5982999000  -0.7357262000
C  2.1173885000  -1.5057387000  0.1131076000
H  1.9846861000  -0.4398526000  0.3272731000
O  2.8085088000  -2.1544359000  1.1803062000
H  2.1121074000  -2.5189355000  1.7624096000
O  0.1899972000  -2.7161276000  1.0197391000
P  -1.2673725000  -2.0613665000  1.4527658000
O  -1.6473572000  -2.8062466000  2.6958944000
O  -2.1706306000  -1.9498865000  0.2648166000
O  -0.8632533000  -0.5210844000  1.7995745000
C  -0.0464793000  -0.1518482000  2.9265423000
H  0.9726828000  0.0509316000  2.5834776000
H  -0.0374330000  -0.9523900000  3.6743273000
C  -0.6795140000  1.1006989000  3.5063635000
H  -0.1314671000  1.4128298000  4.4000615000
O  -0.6089124000  2.2020115000  2.5586766000
C  -1.8754870000  2.4105320000  1.9348312000
H  -2.1869231000  3.4361241000  2.1421277000
N  -1.7280350000  2.3603311000  0.4609239000
C  -1.9794714000  1.2456296000  -0.3066018000
H  -2.3206436000  0.3613538000  0.2138616000
C  -1.7951143000  1.2142876000  -1.6497401000
H  -2.0114714000  0.3138564000  -2.2089525000
C  -1.3081479000  2.3766451000  -2.3438573000
O  -1.1243482000  2.4984524000  -3.5590031000
N  -1.0088894000  3.4466860000  -1.4828600000
H  -0.6331832000  4.2880816000  -1.9126376000
C  -1.1705770000  3.5088517000  -0.1154812000
O  -0.8477996000  4.4969416000  0.5413062000
C  -2.1638445000  0.9094310000  3.8244712000
H  -2.4046195000  -0.1386862000  4.0115393000
C  -2.8947066000  1.4311707000  2.5573371000
H  -3.1166648000  0.5925230000  1.9006225000
O  -4.1300949000  2.0622096000  2.8628607000
H  -4.0036853000  2.4486838000  3.7549074000
O  -2.5320607000  1.7100642000  4.9625328000
H  -3.0963354000  1.1713448000  5.5392734000