59
charge=-1, multiplicity=1, basis=def2-QZVPPD, mem_total=700000, AUX_BASIS_CORR=rimp2-def2-QZVPPD, SCF_ALGORITHM=GDM, xc_grid=000099000590, num_basis=3112, num_pairs=2627052, num_threads=128
H  3.0287593000  -1.8104355000  -4.5280970000
O  2.6262822000  -1.7779164000  -3.6457129000
C  1.9858866000  -0.4984844000  -3.4934376000
H  1.3000488000  -0.3064591000  -4.3274841000
H  2.7336069000  0.3057114000  -3.4537467000
C  1.2044110000  -0.4968542000  -2.1940116000
H  0.8239452000  0.5137372000  -2.0156618000
O  0.0464015000  -1.3888156000  -2.2903520000
C  0.1664152000  -2.4479026000  -1.3391939000
H  -0.5180977000  -2.2898195000  -0.5024443000
N  -0.2648787000  -3.6982582000  -1.9673620000
C  0.4616034000  -4.2241029000  -3.0119210000
H  1.3277791000  -3.6356127000  -3.3003312000
C  0.1103098000  -5.3652048000  -3.6503410000
H  0.7060832000  -5.7560394000  -4.4642652000
C  -1.0903214000  -6.0616271000  -3.2619550000
O  -1.5313211000  -7.1064535000  -3.7556460000
N  -1.8110592000  -5.4157697000  -2.2462069000
H  -2.6874238000  -5.8465896000  -1.9621572000
C  -1.4819266000  -4.2571418000  -1.5729367000
O  -2.2096078000  -3.7618214000  -0.7152997000
C  1.9957251000  -0.9744834000  -0.9762718000
H  3.0700999000  -0.8020326000  -1.0683029000
C  1.6277736000  -2.4572352000  -0.8528406000
H  2.2499018000  -3.0485563000  -1.5275418000
O  1.7869284000  -2.9872555000  0.4518968000
H  1.6344143000  -2.2533112000  1.0877083000
O  1.4959149000  -0.3178060000  0.1975303000
P  2.4984750000  0.2463282000  1.3780955000
O  3.8609695000  0.4915685000  0.8004702000
O  2.2911632000  -0.6329688000  2.5773295000
O  1.7343604000  1.6468326000  1.7025277000
C  1.8736317000  2.7365355000  0.7659932000
H  1.8998546000  2.3554899000  -0.2604066000
H  2.8058049000  3.2739561000  0.9682548000
C  0.7078256000  3.6847115000  0.9288530000
H  0.9167958000  4.5853308000  0.3364934000
O  -0.5096725000  3.0733637000  0.4193029000
C  -1.6231837000  3.4563403000  1.2012270000
H  -2.4066629000  3.8813003000  0.5706871000
N  -2.2018074000  2.2346003000  1.8457780000
C  -1.5445891000  1.0318606000  1.8593976000
H  -0.5781169000  1.0383473000  1.3718778000
C  -2.0692602000  -0.0770139000  2.4404711000
H  -1.5271073000  -1.0131950000  2.4356858000
C  -3.3603408000  -0.0187326000  3.0754590000
O  -3.9518469000  -0.9468833000  3.6414454000
N  -3.9604263000  1.2492721000  3.0098808000
H  -4.8746201000  1.3477351000  3.4443041000
C  -3.4555183000  2.3911750000  2.4271596000
O  -4.0576733000  3.4651444000  2.4149650000
C  0.3660006000  4.0945658000  2.3609617000
H  0.5001586000  3.2511677000  3.0441631000
C  -1.1238533000  4.4638838000  2.2454636000
H  -1.6659139000  4.3798810000  3.1924502000
O  -1.2541070000  5.7748088000  1.6954602000
H  -0.4786512000  6.2716282000  2.0277269000
O  1.1837633000  5.2000877000  2.7469955000
H  1.2168941000  5.2294181000  3.7179125000