59
charge=-1, multiplicity=1, basis=def2-QZVPPD, mem_total=700000, AUX_BASIS_CORR=rimp2-def2-QZVPPD, SCF_ALGORITHM=GDM, xc_grid=000099000590, num_basis=3112, num_pairs=2772421, num_threads=128
H  -1.3715851000  4.9435847000  -2.6364953000
O  -1.2788111000  4.4708277000  -1.7944902000
C  0.0789684000  4.6154206000  -1.3506670000
H  0.2460198000  5.6192238000  -0.9379794000
H  0.7850697000  4.4512424000  -2.1747294000
C  0.3679860000  3.5785512000  -0.2905343000
H  1.4099897000  3.7006586000  0.0338149000
O  -0.4991118000  3.7688297000  0.8678693000
C  -0.8468015000  2.5178640000  1.4285836000
H  -0.6103769000  2.4971938000  2.4939812000
N  -2.3271224000  2.3244293000  1.3139827000
C  -3.1077939000  3.1019786000  0.4979676000
H  -2.5662380000  3.8470081000  -0.0740163000
C  -4.4535376000  2.9420316000  0.4121630000
H  -5.0444714000  3.5704765000  -0.2411319000
C  -5.1141169000  1.9336690000  1.1995371000
O  -6.3271571000  1.6896096000  1.2295348000
N  -4.2359031000  1.1810376000  1.9960650000
H  -4.6495997000  0.4514297000  2.5706494000
C  -2.8676830000  1.3075749000  2.0937689000
O  -2.1733494000  0.5838467000  2.8085870000
C  0.1283403000  2.1248737000  -0.6948155000
H  -0.7711931000  2.0508149000  -1.3143486000
C  -0.0864894000  1.4344699000  0.6535078000
H  -0.6637725000  0.5099684000  0.5775128000
O  1.1562417000  1.2045094000  1.3171017000
H  1.7903690000  0.9421123000  0.6229841000
O  1.2539796000  1.6129642000  -1.4164281000
P  0.9446755000  0.6006141000  -2.6794070000
O  2.2819145000  0.2866009000  -3.2755985000
O  -0.1852004000  1.1163844000  -3.5188467000
O  0.4201319000  -0.6645525000  -1.7700763000
C  -0.2781894000  -1.7585473000  -2.3916340000
H  0.1582066000  -1.9895832000  -3.3697585000
H  -1.3344246000  -1.4978761000  -2.5228456000
C  -0.1702500000  -2.9676570000  -1.4877779000
H  -0.8136665000  -3.7596362000  -1.8918326000
O  1.2013608000  -3.4570053000  -1.4698383000
C  1.5597582000  -3.8827302000  -0.1715622000
H  1.9913199000  -4.8840307000  -0.2068110000
N  2.6231308000  -2.9779045000  0.3681770000
C  2.8826972000  -1.7516780000  -0.1843954000
H  2.2531799000  -1.4883009000  -1.0253762000
C  3.8506630000  -0.9271126000  0.2902088000
H  4.0392502000  0.0299301000  -0.1790991000
C  4.6608789000  -1.3348903000  1.4090064000
O  5.5623479000  -0.6823411000  1.9489434000
N  4.3517255000  -2.6205984000  1.8846625000
H  4.9066147000  -2.9670867000  2.6634253000
C  3.3817380000  -3.4828605000  1.4202791000
O  3.1879144000  -4.6012542000  1.8960867000
C  -0.5244234000  -2.7397618000  -0.0168105000
H  -0.1835907000  -1.7515496000  0.3087730000
C  0.2929994000  -3.8369632000  0.6889960000
H  0.5134745000  -3.6089998000  1.7374106000
O  -0.3671104000  -5.0960072000  0.5673953000
H  -1.3248092000  -4.8980633000  0.5939688000
O  -1.9331641000  -2.8786579000  0.1636022000
H  -2.1710032000  -2.5040817000  1.0287601000