59
charge=-1, multiplicity=1, basis=def2-QZVPPD, mem_total=700000, AUX_BASIS_CORR=rimp2-def2-QZVPPD, SCF_ALGORITHM=GDM, xc_grid=000099000590, num_basis=3112, num_pairs=2417246, num_threads=128
H  -0.6376878000  5.3790183000  1.6948851000
O  -0.3956235000  4.7437356000  1.0020230000
C  -1.4760138000  4.6889957000  0.0518719000
H  -1.6888041000  5.6868868000  -0.3509962000
H  -2.3865062000  4.2922866000  0.5211571000
C  -1.0808183000  3.7619939000  -1.0805883000
H  -1.9437971000  3.6289102000  -1.7387323000
O  -0.0039621000  4.3644178000  -1.8701416000
C  1.1439753000  3.5223482000  -1.8580161000
H  1.2476376000  2.9758721000  -2.7988912000
N  2.3408862000  4.3663077000  -1.7505662000
C  2.4525316000  5.2355872000  -0.6894829000
H  1.6045188000  5.2243558000  -0.0086688000
C  3.5188927000  6.0534027000  -0.5194461000
H  3.5727757000  6.7260607000  0.3261601000
C  4.5927507000  6.0451559000  -1.4836918000
O  5.6180765000  6.7353701000  -1.4536047000
N  4.3794950000  5.1584432000  -2.5502510000
H  5.0959595000  5.1304602000  -3.2712306000
C  3.3098116000  4.3110874000  -2.7558120000
O  3.2237680000  3.5827986000  -3.7423155000
C  -0.5657481000  2.3919481000  -0.6237285000
H  -0.9277578000  2.1148849000  0.3677732000
C  0.9593011000  2.5512467000  -0.6744640000
H  1.3037623000  3.0174162000  0.2509637000
O  1.6720115000  1.3377345000  -0.8324773000
H  1.1591437000  0.8151492000  -1.4792517000
O  -0.9033852000  1.3677767000  -1.5876763000
P  -2.2602311000  0.4749741000  -1.2582307000
O  -2.4388360000  -0.3966732000  -2.4635610000
O  -3.3389947000  1.3747734000  -0.7382537000
O  -1.7915541000  -0.4205008000  0.0314033000
C  -0.7463038000  -1.3889187000  -0.1725009000
H  0.1578673000  -0.9016671000  -0.5541697000
H  -1.0810960000  -2.1357362000  -0.9018085000
C  -0.4045090000  -2.0414935000  1.1446620000
H  -0.0750578000  -1.2914633000  1.8733492000
O  -1.5699863000  -2.7276073000  1.6838571000
C  -1.1834004000  -3.9294815000  2.3254558000
H  -1.5141037000  -3.9338580000  3.3654841000
N  -1.8661649000  -5.0776764000  1.6533337000
C  -2.4811484000  -4.9615309000  0.4350117000
H  -2.4561038000  -3.9665656000  0.0097676000
C  -3.0929970000  -6.0060794000  -0.1779222000
H  -3.5747872000  -5.8796805000  -1.1381702000
C  -3.1175644000  -7.2994519000  0.4559800000
O  -3.6372059000  -8.3312242000  0.0126579000
N  -2.4756877000  -7.3247096000  1.7043956000
H  -2.4653354000  -8.2139327000  2.1979347000
C  -1.8458965000  -6.2828187000  2.3497211000
O  -1.3031002000  -6.3981446000  3.4483124000
C  0.6538251000  -3.1376721000  1.0094321000
H  0.5301275000  -3.6884334000  0.0706847000
C  0.3415184000  -4.0417520000  2.2188118000
H  0.6692060000  -5.0765834000  2.0791502000
O  0.9143190000  -3.4759547000  3.3955355000
H  1.7267438000  -3.0201215000  3.0922306000
O  1.9550979000  -2.5567083000  1.0947578000
H  2.5861654000  -3.1529591000  0.6578870000