59
charge=-1, multiplicity=1, basis=def2-QZVPPD, mem_total=700000, AUX_BASIS_CORR=rimp2-def2-QZVPPD, SCF_ALGORITHM=GDM, xc_grid=000099000590, num_basis=3112, num_pairs=2671535, num_threads=128
H  6.0416348000  0.7902477000  2.2802647000
O  5.1531673000  0.5142148000  2.0046247000
C  4.8580197000  -0.7366781000  2.6486814000
H  5.2019709000  -0.7261886000  3.6894930000
H  5.3480754000  -1.5691327000  2.1255142000
C  3.3669813000  -0.9795987000  2.6159297000
H  3.1743972000  -1.9821851000  3.0199856000
O  2.6727514000  -0.0088942000  3.4543044000
C  1.4328750000  0.3487863000  2.8754557000
H  0.6196499000  0.2128497000  3.5901420000
N  1.4623639000  1.8055785000  2.5356571000
C  2.6385759000  2.4897459000  2.3721778000
H  3.5356940000  1.8955804000  2.5169109000
C  2.6748960000  3.8084599000  2.0505456000
H  3.6188028000  4.3236355000  1.9306454000
C  1.4505974000  4.5423094000  1.8672243000
O  1.3385553000  5.7406359000  1.5772124000
N  0.2973148000  3.7598676000  2.0434739000
H  -0.5977107000  4.2299192000  1.9347773000
C  0.2265498000  2.4206060000  2.3669082000
O  -0.8370460000  1.8139956000  2.4874050000
C  2.6858685000  -0.8535522000  1.2548874000
H  3.1279222000  -0.0279089000  0.6859202000
C  1.2316242000  -0.5036731000  1.6153784000
H  0.7305267000  0.0640610000  0.8281008000
O  0.4757523000  -1.6586109000  1.9652992000
H  0.4099520000  -2.1800398000  1.1429043000
O  2.8569968000  -2.0739012000  0.5278945000
P  2.6657125000  -2.0308082000  -1.1004773000
O  2.9310277000  -3.4225670000  -1.5886183000
O  3.3757561000  -0.8559832000  -1.7082724000
O  1.0490652000  -1.7239872000  -1.0459760000
C  0.3322705000  -1.3924723000  -2.2459734000
H  0.8815155000  -1.7151685000  -3.1380465000
H  0.1998307000  -0.3045106000  -2.2875000000
C  -1.0058378000  -2.0954769000  -2.2304703000
H  -0.8541825000  -3.1811445000  -2.1952615000
O  -1.7685406000  -1.7052089000  -1.0567108000
C  -3.1431810000  -1.5908675000  -1.3686516000
H  -3.7403316000  -2.2174137000  -0.7025384000
N  -3.5659827000  -0.1702627000  -1.1342846000
C  -2.6742375000  0.8072457000  -0.7774885000
H  -1.6538540000  0.4641658000  -0.6719664000
C  -3.0445052000  2.0941251000  -0.5619119000
H  -2.3145007000  2.8384900000  -0.2748613000
C  -4.4253079000  2.4789255000  -0.6988841000
O  -4.8991609000  3.6100223000  -0.5338658000
N  -5.2715829000  1.4128595000  -1.0434887000
H  -6.2612694000  1.6254180000  -1.1421617000
C  -4.9251259000  0.0978027000  -1.2678318000
O  -5.7444167000  -0.7744756000  -1.5556854000
C  -1.9059291000  -1.7404971000  -3.4121763000
H  -1.7968553000  -0.6829243000  -3.6790121000
C  -3.3116475000  -2.0005666000  -2.8395542000
H  -4.0948308000  -1.4283129000  -3.3440484000
O  -3.5943117000  -3.3992224000  -2.8741713000
H  -3.1367510000  -3.7380401000  -3.6703171000
O  -1.5897311000  -2.5763392000  -4.5242349000
H  -1.9098633000  -2.1429349000  -5.3332770000