59
charge=-1, multiplicity=1, basis=def2-QZVPPD, mem_total=700000, AUX_BASIS_CORR=rimp2-def2-QZVPPD, SCF_ALGORITHM=GDM, xc_grid=000099000590, num_basis=3112, num_pairs=2540378, num_threads=128
H  -1.0849971000  4.7281240000  -2.1094576000
O  -1.3367934000  4.0641562000  -1.4478998000
C  -0.1518755000  3.6871312000  -0.7312006000
H  0.3352091000  4.5672516000  -0.2938808000
H  0.5658669000  3.1823080000  -1.3920453000
C  -0.5234379000  2.7219376000  0.3703876000
H  0.3989299000  2.3966031000  0.8694755000
O  -1.3782558000  3.3777877000  1.3496110000
C  -2.3211083000  2.4604964000  1.8779880000
H  -2.2401546000  2.4112687000  2.9652058000
N  -3.6975459000  2.9646223000  1.5861036000
C  -3.9520727000  3.8118617000  0.5372541000
H  -3.0822591000  4.0821263000  -0.0535005000
C  -5.1952187000  4.2891376000  0.2713550000
H  -5.3634952000  4.9625129000  -0.5588094000
C  -6.3110759000  3.9132266000  1.1025400000
O  -7.4866895000  4.2780050000  0.9769883000
N  -5.9592221000  3.0421230000  2.1464889000
H  -6.7063377000  2.7432655000  2.7685357000
C  -4.7113650000  2.5370152000  2.4419746000
O  -4.5020163000  1.7770847000  3.3876095000
C  -1.3120878000  1.4822535000  -0.0572737000
H  -2.0138085000  1.7289108000  -0.8588505000
C  -2.0482278000  1.0918677000  1.2344518000
H  -2.9703276000  0.5285697000  1.0597788000
O  -1.1607105000  0.3621856000  2.0856805000
H  -0.5675237000  -0.1203072000  1.4731679000
O  -0.4046689000  0.4642935000  -0.4766979000
P  -0.8484843000  -0.5326103000  -1.7279711000
O  -1.1675128000  0.3155291000  -2.9237196000
O  -1.8084169000  -1.5679801000  -1.2277983000
O  0.5860933000  -1.2858166000  -1.9055485000
C  1.6960538000  -0.5422875000  -2.4597291000
H  1.7413579000  0.4545029000  -2.0113202000
H  1.5653319000  -0.4424096000  -3.5419190000
C  2.9803977000  -1.2915008000  -2.1832774000
H  3.7857030000  -0.8221148000  -2.7645786000
O  3.3074760000  -1.2082133000  -0.7705976000
C  3.9234301000  -2.4152990000  -0.3331705000
H  4.9110755000  -2.2136684000  0.0820837000
N  3.1284621000  -2.9736762000  0.7835935000
C  1.7563412000  -3.0112749000  0.7101886000
H  1.3334242000  -2.5809767000  -0.1922926000
C  0.9824881000  -3.5085618000  1.7049448000
H  -0.0954517000  -3.5254117000  1.6144151000
C  1.5967153000  -4.0058456000  2.9110812000
O  1.0162947000  -4.4800613000  3.8946048000
N  2.9957741000  -3.8960924000  2.9159972000
H  3.4780226000  -4.2252345000  3.7486906000
C  3.8130919000  -3.4020233000  1.9215678000
O  5.0366988000  -3.3461368000  2.0348461000
C  2.9488324000  -2.7914392000  -2.4940198000
H  1.9674850000  -3.2145050000  -2.2626742000
C  4.0217478000  -3.3532932000  -1.5444501000
H  3.8494952000  -4.3987619000  -1.2649048000
O  5.3145580000  -3.1878270000  -2.1289900000
H  5.1636357000  -3.2264272000  -3.0964558000
O  3.2706939000  -2.9932447000  -3.8721778000
H  2.9304554000  -3.8631571000  -4.1413987000