59
charge=-1, multiplicity=1, basis=def2-QZVPPD, mem_total=700000, AUX_BASIS_CORR=rimp2-def2-QZVPPD, SCF_ALGORITHM=GDM, xc_grid=000099000590, num_basis=3112, num_pairs=2756451, num_threads=128
H  3.1021196000  -5.0764817000  1.8507563000
O  2.6650188000  -4.2458409000  1.6039841000
C  1.6629563000  -3.9639383000  2.5933482000
H  2.0721933000  -4.0740378000  3.6047141000
H  0.8090470000  -4.6469574000  2.4856450000
C  1.1543899000  -2.5522499000  2.4101852000
H  0.3092607000  -2.3901941000  3.0899235000
O  2.2142105000  -1.6024291000  2.7492974000
C  2.1575615000  -0.4714423000  1.8995835000
H  2.1339163000  0.4484217000  2.4848728000
N  3.4022903000  -0.4132535000  1.0745223000
C  4.1490943000  -1.5326004000  0.8109761000
H  3.7718988000  -2.4499731000  1.2535458000
C  5.2788644000  -1.4948139000  0.0594119000
H  5.8463785000  -2.3961788000  -0.1303033000
C  5.7392980000  -0.2481787000  -0.4948349000
O  6.7476476000  -0.0729591000  -1.1909080000
N  4.9118073000  0.8423971000  -0.1802114000
H  5.1857036000  1.7492114000  -0.5500862000
C  3.7578797000  0.8388363000  0.5766753000
O  3.0927450000  1.8500492000  0.7928353000
C  0.7547920000  -2.1511117000  0.9925261000
H  1.4648564000  -2.5514180000  0.2620105000
C  0.8971710000  -0.6164849000  1.0346409000
H  1.0274102000  -0.1779313000  0.0425068000
O  -0.1623712000  0.0212581000  1.7478190000
H  -0.9340512000  0.1034968000  1.1577199000
O  -0.5527376000  -2.6449981000  0.7145467000
P  -1.1276330000  -2.5658625000  -0.8284881000
O  -2.0834370000  -3.7104307000  -0.9694119000
O  -0.0079467000  -2.3082740000  -1.7872763000
O  -1.9751091000  -1.1564358000  -0.7538864000
C  -3.1241380000  -1.1070706000  0.1188170000
H  -2.8195604000  -1.3075611000  1.1524293000
H  -3.8577380000  -1.8610796000  -0.1856898000
C  -3.7383038000  0.2654150000  0.0114655000
H  -4.6428848000  0.2977787000  0.6317163000
O  -2.7792525000  1.2386849000  0.5224368000
C  -2.9085412000  2.4719908000  -0.1743183000
H  -3.0898779000  3.2911905000  0.5214291000
N  -1.6260979000  2.7735909000  -0.8662093000
C  -0.7787922000  1.7799150000  -1.2890986000
H  -1.1086669000  0.7707370000  -1.0653272000
C  0.3823553000  2.0375468000  -1.9387651000
H  1.0316580000  1.2325774000  -2.2558305000
C  0.7599933000  3.3974414000  -2.2299322000
O  1.7823302000  3.7737884000  -2.8131516000
N  -0.1878338000  4.3440663000  -1.8046460000
H  0.0163521000  5.3195237000  -2.0076550000
C  -1.3744447000  4.1151810000  -1.1423965000
O  -2.1569699000  5.0129840000  -0.8320071000
C  -4.0638589000  0.7759920000  -1.3903836000
H  -3.2820686000  0.4825622000  -2.0973672000
C  -4.0593180000  2.3003236000  -1.1756034000
H  -3.8855521000  2.8696756000  -2.0950211000
O  -5.2728994000  2.7018130000  -0.5420102000
H  -5.9632442000  2.1060444000  -0.8971184000
O  -5.3329147000  0.2665047000  -1.7963824000
H  -5.3849564000  0.3111890000  -2.7660205000