6
charge=0, multiplicity=1, basis=def2-QZVPPD, comment=['step_size = {step_size}'], AUX_BASIS_CORR=rimp2-def2-QZVPPD, SCF_ALGORITHM=GDM, xc_grid=000099000590, mem_total=3750, num_basis=264, num_pairs=33337, num_threads=1
H  0.8151073300  1.8637132600  0.0000000000
O  -0.0670790700  1.4900777900  0.0000000000
H  0.0713493400  0.5348998400  0.0000000000
H  -0.4126325700  -1.7608600200  0.7601477100
O  0.0632234500  -1.4193118400  0.0000000000
H  -0.4126325700  -1.7608600200  -0.7601477100