7
charge=0, multiplicity=1, basis=def2-QZVPPD, comment=['step_size = 0.003'], AUX_BASIS_CORR=rimp2-def2-QZVPPD, SCF_ALGORITHM=GDM, xc_grid=000099000590, mem_total=3750, num_basis=294, num_pairs=41178, num_threads=1
O  -1.4766667285  -0.0579502275  0.0000000000
H  -1.8508769975  0.8238143394  0.0000000000
H  -0.5156636437  0.0782630605  0.0000000000
N  1.4609486393  0.0144054564  0.0000000000
H  1.6516175547  -0.9808043453  0.0000000000
H  1.9258817860  0.3991423348  0.8134237327
H  1.9258817860  0.3991423348  -0.8134237327