5
charge=0, multiplicity=1, basis=def2-QZVPPD, comment=['step_size = 0.001'], AUX_BASIS_CORR=rimp2-def2-QZVPPD, SCF_ALGORITHM=GDM, xc_grid=000099000590, mem_total=3750, num_basis=241, num_pairs=27103, num_threads=1
N  0.0656177010  -2.4982819068  0.0000000000
H  -0.3758742730  -2.0823396669  0.8118829019
H  -0.3758742730  -2.0823396669  -0.8118829019
H  -0.1942480027  -3.4778490699  0.0000000000
Ar  0.0008645474  1.0681534467  0.0000000000