7
charge=0, multiplicity=1, basis=def2-QZVPPD, comment=['step_size = 0.001'], AUX_BASIS_CORR=rimp2-def2-QZVPPD, SCF_ALGORITHM=GDM, xc_grid=000099000590, mem_total=3750, num_basis=294, num_pairs=41556, num_threads=1
F  -0.0000000882  -1.4638424101  0.0000000000
H  -0.0000133128  -0.5439340891  0.0000000000
C  0.0000004396  1.7666638199  0.0000000000
H  0.5156998804  1.4166396653  0.8940613992
H  0.5156998804  1.4166396653  -0.8940613992
H  -1.0318776500  1.4159028884  0.0000000000
H  0.0004875334  2.8541270029  -0.0000000000