9
charge=0, multiplicity=1, basis=def2-QZVPPD, comment=['step_size = 0.001'], AUX_BASIS_CORR=rimp2-def2-QZVPPD, SCF_ALGORITHM=GDM, xc_grid=000099000590, mem_total=3750, num_basis=393, num_pairs=70355, num_threads=1
O  -0.7744665977  0.6531074176  0.0000000000
H  0.1402585187  0.3493731138  0.0000000000
C  -1.6136346110  -0.4879071390  0.0000000000
H  -2.6435316794  -0.1331378234  0.0000000000
H  -1.4622918975  -1.1088644111  -0.8894993463
H  -1.4622918975  -1.1088644111  0.8894993463
O  2.0133204757  -0.1810096216  0.0000000000
H  2.4898088780  0.1591928317  -0.7603670353
H  2.4898088780  0.1591928317  0.7603670353