6
charge=0, multiplicity=1, basis=def2-QZVPPD, comment=['step_size = 0.001'], AUX_BASIS_CORR=rimp2-def2-QZVPPD, SCF_ALGORITHM=GDM, xc_grid=000099000590, mem_total=3750, num_basis=327, num_pairs=50678, num_threads=1
H  0.0000000000  -0.7600192328  -2.5312590518
O  0.0000000000  0.0000000000  -1.9463269851
H  0.0000000000  0.7600192328  -2.5312590518
O  0.0000000000  -1.1628520414  0.8288906316
C  0.0000000000  0.0000000000  0.8097830722
O  0.0000000000  1.1628520414  0.8288906316