10
charge=0, multiplicity=1, basis=def2-QZVPPD, comment=['step_size = 0.001'], AUX_BASIS_CORR=rimp2-def2-QZVPPD, SCF_ALGORITHM=GDM, xc_grid=000099000590, mem_total=3750, num_basis=390, num_pairs=69840, num_threads=1
C  1.8243775403  0.0000004026  0.0000002782
H  1.4605362187  0.8867823613  0.5154651214
H  1.4599606136  0.0027752418  -1.0255035325
H  1.4600869674  -0.8898379536  0.5098494448
H  2.9126975965  0.0002742769  0.0001846060
C  -1.8243775403  -0.0000004026  -0.0000002782
H  -2.9126975965  -0.0002742769  -0.0001846060
H  -1.4599606136  -0.0027752418  1.0255035325
H  -1.4605362187  -0.8867823613  -0.5154651214
H  -1.4600869674  0.8898379536  -0.5098494448