4
charge=0, multiplicity=1, basis=def2-QZVPPD, comment=['step_size = 0.001'], AUX_BASIS_CORR=rimp2-def2-QZVPPD, SCF_ALGORITHM=GDM, xc_grid=000099000590, mem_total=3750, num_basis=228, num_pairs=24519, num_threads=1
C  0.0000000000  0.0000000000  2.0760352457
O  0.0000000000  0.0000000000  0.9431471919
H  0.0000000000  0.0000000000  -1.1261879097
F  0.0000000000  0.0000000000  -2.0455919851