4
charge=0, multiplicity=1, basis=def2-QZVPPD, comment=['step_size = 0.01'], AUX_BASIS_CORR=rimp2-def2-QZVPPD, SCF_ALGORITHM=GDM, xc_grid=000099000590, mem_total=3750, num_basis=225, num_pairs=23684, num_threads=1
F  -0.0004851182  -0.0000000000  -2.0872328400
H  0.0019247563  0.0000000000  -1.1665581400
N  0.0020515189  0.0000000000  0.9081427600
N  -0.0015318727  -0.0000000000  2.0076297100