10
charge=0, multiplicity=1, basis=def2-QZVPPD, comment=['step_size = 0.001'], AUX_BASIS_CORR=rimp2-def2-QZVPPD, SCF_ALGORITHM=GDM, xc_grid=000099000590, mem_total=3750, num_basis=390, num_pairs=69840, num_threads=1
C  1.8243774929  -0.0000571894  0.0000580257
H  1.4602459455  0.8868446342  0.5151224341
H  1.4602679690  0.0033283915  -1.0255695661
H  1.4600704974  -0.8897700709  0.5100703219
H  2.9126975467  0.0002782316  -0.0003143739
C  -1.8243774929  0.0000571894  -0.0000580257
H  -2.9126975467  -0.0002782316  0.0003143739
H  -1.4602679690  -0.0033283915  1.0255695661
H  -1.4602459455  -0.8868446342  -0.5151224341
H  -1.4600704974  0.8897700709  -0.5100703219