6
charge=0, multiplicity=1, basis=def2-QZVPPD, comment=['step_size = 0.001'], AUX_BASIS_CORR=rimp2-def2-QZVPPD, SCF_ALGORITHM=GDM, xc_grid=000099000590, mem_total=3750, num_basis=264, num_pairs=33337, num_threads=1
H  0.8142802741  1.8633399632  0.0000000000
O  -0.0670311941  1.4901210543  0.0000000000
H  0.0714170055  0.5345877213  0.0000000000
H  -0.4126241745  -1.7608543069  0.7601311594
O  0.0632223646  -1.4193126369  0.0000000000
H  -0.4126241745  -1.7608543069  -0.7601311594