8
charge=0, multiplicity=1, basis=def2-QZVPPD, comment=['step_size = 0.001'], AUX_BASIS_CORR=rimp2-def2-QZVPPD, SCF_ALGORITHM=GDM, xc_grid=000099000590, mem_total=3750, num_basis=327, num_pairs=49748, num_threads=1
O  -1.6538510800  0.0622771200  -0.0000001035
H  -2.0725215900  -0.8003331400  -0.0000000205
H  -0.7133127000  -0.1276480500  0.0000035025
C  1.8240301200  -0.0038760600  0.0000877829
H  1.4089359922  0.4644398721  0.8904909695
H  1.4084137678  0.4650302279  -0.8915764305
H  2.9042414700  0.1249006600  0.0000201508
H  1.5936456300  -1.0686210400  0.0000182551