7
charge=0, multiplicity=1, basis=def2-QZVPPD, comment=['step_size = 0.001'], AUX_BASIS_CORR=rimp2-def2-QZVPPD, SCF_ALGORITHM=GDM, xc_grid=000099000590, mem_total=3750, num_basis=294, num_pairs=41556, num_threads=1
F  -0.0000007000  -1.4638419816  0.0000000000
H  0.0000203999  -0.5439405873  0.0000000000
C  -0.0000006282  1.7666568230  0.0000000000
H  0.5157764699  1.4165635310  0.8933486874
H  0.5157764699  1.4165635310  -0.8933486874
H  -1.0315467646  1.4165504591  0.0000000000
H  -0.0000059969  2.8537134338  0.0000000000