4
charge=0, multiplicity=1, basis=def2-QZVPPD, comment=['step_size = 0.01'], AUX_BASIS_CORR=rimp2-def2-QZVPPD, SCF_ALGORITHM=GDM, xc_grid=000099000590, mem_total=3750, num_basis=228, num_pairs=24519, num_threads=1
C  -0.0000000006  0.0018098631  2.0762534000
O  0.0000000006  -0.0018473209  0.9429834400
H  0.0000000004  -0.0013023957  -1.1261855400
F  -0.0000000002  0.0004811964  -2.0455920400