9
charge=0, multiplicity=1, basis=def2-QZVPPD, comment=['step_size = 0.001'], AUX_BASIS_CORR=rimp2-def2-QZVPPD, SCF_ALGORITHM=GDM, xc_grid=000099000590, mem_total=3750, num_basis=393, num_pairs=70355, num_threads=1
O  -0.7744672300  0.6531056000  0.0000084205
H  0.1402446500  0.3493741000  0.0000114605
C  -1.6136411200  -0.4879550600  0.0000581353
H  -2.6432310200  -0.1332504000  -0.0007089048
H  -1.4628594002  -1.1085030391  -0.8890187247
H  -1.4619209998  -1.1085160009  0.8888938353
O  2.0133203300  -0.1810094600  -0.0000003508
H  2.4898104978  0.1591926439  -0.7603654823
H  2.4898069222  0.1591916961  0.7603675377