7
charge=0, multiplicity=1, basis=def2-QZVPPD, comment=['step_size = 0.001'], AUX_BASIS_CORR=rimp2-def2-QZVPPD, SCF_ALGORITHM=GDM, xc_grid=000099000590, mem_total=3750, num_basis=321, num_pairs=47459, num_threads=1
C  0.0000629100  2.2782077700  0.0000001660
H  0.0477745000  3.3653414100  -0.0004988289
H  0.4960061143  1.8926209096  0.8888435309
H  -1.0411003800  1.9609922600  0.0004966056
H  0.4966153057  1.8934098704  -0.8888445291
N  -0.0000015913  -1.3040767726  0.5502491648
N  -0.0000016087  -1.3040764274  -0.5502490752