8
charge=0, multiplicity=1, basis=def2-QZVPPD, comment=['step_size = 0.003'], AUX_BASIS_CORR=rimp2-def2-QZVPPD, SCF_ALGORITHM=GDM, xc_grid=000099000590, mem_total=3750, num_basis=324, num_pairs=48322, num_threads=1
N  -0.0593083000  1.6406350200  0.0000270100
H  0.3243295673  2.1116746474  -0.8104307580
H  0.3226660727  2.1136597726  0.8101100620
H  0.3188471400  0.6976159400  0.0014062789
N  0.0344957700  -1.5879305200  -0.0001829983
H  -0.9352932700  -1.2927435300  0.0004394315
H  0.1563184207  -2.1821003868  -0.8114271793
H  0.1578860593  -2.1804012532  0.8120695207