7
charge=0, multiplicity=1, basis=def2-QZVPPD, comment=['step_size = 0.001'], AUX_BASIS_CORR=rimp2-def2-QZVPPD, SCF_ALGORITHM=GDM, xc_grid=000099000590, mem_total=3750, num_basis=337, num_pairs=52652, num_threads=1
C  0.0000000000  -0.6673646703  2.2286092674
C  0.0000000000  0.6673646703  2.2286092674
H  0.0000000000  -1.2314610294  3.1521154857
H  0.0000000000  -1.2325484722  1.3045768651
H  0.0000000000  1.2314610294  3.1521154857
H  0.0000000000  1.2325484722  1.3045768651
Ar  0.0000000000  0.0000000000  -1.5632139239