8
charge=0, multiplicity=1, basis=def2-QZVPPD, comment=['step_size = 0.003'], AUX_BASIS_CORR=rimp2-def2-QZVPPD, SCF_ALGORITHM=GDM, xc_grid=000099000590, mem_total=3750, num_basis=324, num_pairs=48322, num_threads=1
N  -0.0593083000  1.6406350200  -0.0001012672
H  0.3241975004  2.1138010349  -0.8093792862
H  0.3227981396  2.1115333851  0.8111615338
H  0.3188471400  0.6976159400  -0.0010448997
N  0.0344957700  -1.5879305200  -0.0000435256
H  -0.9352932700  -1.2927435300  0.0004965056
H  0.1564262420  -2.1819815738  -0.8113593748
H  0.1577782380  -2.1805200662  0.8121373252