7
charge=0, multiplicity=1, basis=def2-QZVPPD, comment=['step_size = 0.003'], AUX_BASIS_CORR=rimp2-def2-QZVPPD, SCF_ALGORITHM=GDM, xc_grid=000099000590, mem_total=3750, num_basis=294, num_pairs=41556, num_threads=1
F  -0.0000006875  -1.4642897624  0.0000000000
H  0.0000203844  -0.5443811359  0.0000000000
C  -0.0000006449  1.7672242587  0.0000000000
H  0.5160217936  1.4169467374  0.8937737670
H  0.5160217936  1.4169467374  -0.8937737670
H  -1.0320376716  1.4169340170  0.0000000000
H  -0.0000057578  2.8546887146  0.0000000000