8
charge=0, multiplicity=1, basis=def2-QZVPPD, comment=['step_size = 0.003'], AUX_BASIS_CORR=rimp2-def2-QZVPPD, SCF_ALGORITHM=GDM, xc_grid=000099000590, mem_total=3750, num_basis=324, num_pairs=48371, num_threads=1
N  -0.0592976087  1.6401735739  0.0000000000
H  0.3236565415  2.1120902089  -0.8102682709
H  0.3236565415  2.1120902089  0.8102682709
H  0.3185415490  0.6970265469  0.0000000000
N  0.0344476652  -1.5874173833  0.0000000000
H  -0.9355522620  -1.2929250879  0.0000000000
H  0.1574857288  -2.1806474472  -0.8117491936
H  0.1574857288  -2.1806474472  0.8117491936