6
charge=0, multiplicity=1, basis=def2-QZVPPD, comment=['step_size = 0.003'], AUX_BASIS_CORR=rimp2-def2-QZVPPD, SCF_ALGORITHM=GDM, xc_grid=000099000590, mem_total=3750, num_basis=390, num_pairs=68687, num_threads=1
C  1.7285255100  0.2783771700  -0.0005222062
O  0.9775430000  1.1686684100  0.0001973798
O  2.4818868000  -0.6057588500  0.0001943994
C  -1.7285255100  -0.2783771700  -0.0005222062
O  -0.9775430000  -1.1686684100  0.0001973798
O  -2.4818868000  0.6057588500  0.0001943994