4
charge=0, multiplicity=1, basis=def2-QZVPPD, comment=['step_size = 0.003'], AUX_BASIS_CORR=rimp2-def2-QZVPPD, SCF_ALGORITHM=GDM, xc_grid=000099000590, mem_total=3750, num_basis=198, num_pairs=19055, num_threads=1
F  1.4005360587  -0.0096447385  0.0000000000
H  0.4860492789  0.1181132190  0.0000000000
F  -1.3366812803  0.0460386321  0.0000000000
H  -1.6897690060  -0.8041706425  0.0000000000