4
charge=0, multiplicity=1, basis=def2-QZVPPD, comment=['step_size = 0.001'], AUX_BASIS_CORR=rimp2-def2-QZVPPD, SCF_ALGORITHM=GDM, xc_grid=000099000590, mem_total=3750, num_basis=211, num_pairs=20362, num_threads=1
H  3.0124771103  -0.7834152416  0.0000000000
O  2.5633169325  0.0629749241  0.0000000000
H  1.6316931417  -0.1616540467  0.0000000000
Ar  -1.1430886351  -0.0013716383  0.0000000000