7
charge=0, multiplicity=1, basis=def2-QZVPPD, comment=['step_size = 0.001'], AUX_BASIS_CORR=rimp2-def2-QZVPPD, SCF_ALGORITHM=GDM, xc_grid=000099000590, mem_total=3750, num_basis=294, num_pairs=41178, num_threads=1
O  -1.4769835259  -0.0579480780  0.0000000000
H  -1.8497617599  0.8244687925  0.0000000000
H  -0.5159116954  0.0779967236  0.0000000000
N  1.4611765672  0.0142952224  0.0000000000
H  1.6537376845  -0.9805569519  0.0000000000
H  1.9253185754  0.3995733377  0.8136137338
H  1.9253185754  0.3995733377  -0.8136137338