9
charge=0, multiplicity=1, basis=def2-QZVPPD, comment=['step_size = 0.001'], AUX_BASIS_CORR=rimp2-def2-QZVPPD, SCF_ALGORITHM=GDM, xc_grid=000099000590, mem_total=3750, num_basis=393, num_pairs=70355, num_threads=1
O  -0.7744801258  0.6531247776  0.0000000000
H  0.1401755952  0.3492131008  0.0000000000
C  -1.6136573053  -0.4879129846  0.0000000000
H  -2.6431271225  -0.1329317860  0.0000000000
H  -1.4622118176  -1.1089953281  -0.8885816555
H  -1.4622118176  -1.1089953281  0.8885816555
O  2.0133211890  -0.1810080910  0.0000000000
H  2.4898047805  0.1591856342  -0.7603718977
H  2.4898047805  0.1591856342  0.7603718977