7
charge=0, multiplicity=1, basis=def2-QZVPPD, comment=['step_size = 0.001'], AUX_BASIS_CORR=rimp2-def2-QZVPPD, SCF_ALGORITHM=GDM, xc_grid=000099000590, mem_total=3750, num_basis=321, num_pairs=47459, num_threads=1
C  0.0000629031  2.2782084809  0.0000000000
H  0.0477961209  3.3658318495  0.0000000000
H  0.4965391196  1.8928385644  0.8892529239
H  -1.0415787305  1.9608468394  0.0000000000
H  0.4965391196  1.8928385644  -0.8892529239
N  -0.0000016003  -1.3040765939  0.5502491136
N  -0.0000016003  -1.3040765939  -0.5502491136