8
charge=0, multiplicity=1, basis=def2-QZVPPD, comment=['step_size = 0.001'], AUX_BASIS_CORR=rimp2-def2-QZVPPD, SCF_ALGORITHM=GDM, xc_grid=000099000590, mem_total=3750, num_basis=327, num_pairs=49748, num_threads=1
O  -1.6538513694  0.0622772066  0.0000000000
H  -2.0725212431  -0.8003330307  0.0000000000
H  -0.7133097120  -0.1276499618  0.0000000000
C  1.8241174426  -0.0038767369  0.0000000000
H  1.4085796459  0.4648641316  0.8912793654
H  1.4085796459  0.4648641316  -0.8912793654
H  2.9034066877  0.1247987550  0.0000000000
H  1.5936324025  -1.0687688113  0.0000000000