8
charge=0, multiplicity=1, basis=def2-QZVPPD, comment=['step_size = 0.001'], AUX_BASIS_CORR=rimp2-def2-QZVPPD, SCF_ALGORITHM=GDM, xc_grid=000099000590, mem_total=3750, num_basis=324, num_pairs=48273, num_threads=1
N  -0.0593083475  1.6406363718  0.0000000000
H  0.3234955812  2.1126650258  -0.8102653209
H  0.3234955812  2.1126650258  0.8102653209
H  0.3188513254  0.6976010051  0.0000000000
N  0.0344377792  -1.5878817216  0.0000000000
H  -0.9345685236  -1.2929691942  0.0000000000
H  0.1571432152  -2.1814767390  -0.8120878112
H  0.1571432152  -2.1814767390  0.8120878112