6
charge=0, multiplicity=1, basis=def2-QZVPPD, comment=['step_size = 0.003'], AUX_BASIS_CORR=rimp2-def2-QZVPPD, SCF_ALGORITHM=GDM, xc_grid=000099000590, mem_total=3750, num_basis=264, num_pairs=33337, num_threads=1
H  0.8151073300  1.8637132600  -0.0000474654
O  -0.0670790700  1.4900777900  -0.0000831875
H  0.0713493400  0.5348998400  0.0027134627
H  -0.4126632330  -1.7600979174  0.7603631250
O  0.0632234500  -1.4193118400  -0.0001119408
H  -0.4126019070  -1.7616221226  -0.7599322950