5
charge=0, multiplicity=1, basis=def2-QZVPPD, comment=['step_size = {step_size}'], AUX_BASIS_CORR=rimp2-def2-QZVPPD, SCF_ALGORITHM=GDM, xc_grid=000099000590, mem_total=3750, num_basis=321, num_pairs=46297, num_threads=1
O  0.0000000000  1.1630216600  1.4281639800
C  0.0000000000  0.0000000000  1.4251331000
O  0.0000000000  -1.1630216600  1.4281639800
N  0.0000000000  0.0000000000  -1.6917960700
N  0.0000000000  0.0000000000  -2.7920993300