7
charge=0, multiplicity=1, basis=def2-QZVPPD, comment=['step_size = 0.001'], AUX_BASIS_CORR=rimp2-def2-QZVPPD, SCF_ALGORITHM=GDM, xc_grid=000099000590, mem_total=3750, num_basis=321, num_pairs=47459, num_threads=1
C  -0.0000279583  2.2782786593  0.0000000000
H  0.0482290205  3.3653699468  0.0000000000
H  0.4965810899  1.8928038119  0.8885425739
H  -1.0410135321  1.9605432098  0.0000000000
H  0.4965810899  1.8928038119  -0.8885425739
N  -0.0000016063  -1.3040766143  0.5502492433
N  -0.0000016063  -1.3040766143  -0.5502492433