5
charge=0, multiplicity=1, basis=def2-QZVPPD, comment=['step_size = 0.003'], AUX_BASIS_CORR=rimp2-def2-QZVPPD, SCF_ALGORITHM=GDM, xc_grid=000099000590, mem_total=3750, num_basis=231, num_pairs=26194, num_threads=1
F  -0.0073870782  1.2997437292  0.0000000000
H  0.0413577850  0.3671426527  0.0000000000
O  0.0532642643  -1.3473039990  0.0000000000
H  -0.3737236245  -1.7428911657  0.7631368433
H  -0.3737236245  -1.7428911657  -0.7631368433