6
charge=0, multiplicity=1, basis=def2-QZVPPD, comment=['step_size = 0.001'], AUX_BASIS_CORR=rimp2-def2-QZVPPD, SCF_ALGORITHM=GDM, xc_grid=000099000590, mem_total=3750, num_basis=274, num_pairs=35091, num_threads=1
C  0.0000000000  2.6306280965  0.0000000000
H  -0.5131633609  2.2670584037  0.8888218115
H  -0.5131633609  2.2670584037  -0.8888218115
H  0.0000056226  3.7193820335  0.0000000000
H  1.0263211289  2.2670504802  0.0000000000
Ar  0.0000000000  -1.0552526249  0.0000000000