7
charge=0, multiplicity=1, basis=def2-QZVPPD, comment=['step_size = 0.001'], AUX_BASIS_CORR=rimp2-def2-QZVPPD, SCF_ALGORITHM=GDM, xc_grid=000099000590, mem_total=3750, num_basis=294, num_pairs=41178, num_threads=1
O  -1.4769609828  -0.0578991032  0.0000000000
H  -1.8502411336  0.8242641841  0.0000000000
H  -0.5157959755  0.0773652442  0.0000000000
N  1.4611342895  0.0142768892  0.0000000000
H  1.6536393291  -0.9811817571  0.0000000000
H  1.9256644024  0.4000425157  0.8138834650
H  1.9256644024  0.4000425157  -0.8138834650