6
charge=0, multiplicity=1, basis=def2-QZVPPD, comment=['step_size = 0.003'], AUX_BASIS_CORR=rimp2-def2-QZVPPD, SCF_ALGORITHM=GDM, xc_grid=000099000590, mem_total=3750, num_basis=264, num_pairs=33337, num_threads=1
H  0.8143901457  1.8653781890  0.0000000000
O  -0.0670413989  1.4899770914  0.0000000000
H  0.0730200359  0.5350437225  0.0000000000
H  -0.4120855839  -1.7617163830  0.7601577615
O  0.0630567688  -1.4192171956  0.0000000000
H  -0.4120855839  -1.7617163830  -0.7601577615