3
charge=0, multiplicity=1, basis=def2-QZVPPD, comment=['step_size = 0.01'], AUX_BASIS_CORR=rimp2-def2-QZVPPD, SCF_ALGORITHM=GDM, xc_grid=000099000590, mem_total=3750, num_basis=178, num_pairs=14905, num_threads=1
F  0.0000000000  0.0000000000  2.3266434718
H  0.0000000000  0.0000000000  1.4081102946
Ar  0.0000000000  0.0000000000  -1.1416145684