9
charge=0, multiplicity=1, basis=def2-QZVPPD, comment=['step_size = 0.001'], AUX_BASIS_CORR=rimp2-def2-QZVPPD, SCF_ALGORITHM=GDM, xc_grid=000099000590, mem_total=3750, num_basis=393, num_pairs=70355, num_threads=1
O  -0.7745720534  0.6529709566  0.0000000000
H  0.1402181596  0.3495057709  0.0000000000
C  -1.6135120117  -0.4878188507  0.0000000000
H  -2.6430762570  -0.1330216625  0.0000000000
H  -1.4624021328  -1.1084206544  -0.8889598613
H  -1.4624021328  -1.1084206544  0.8889598613
O  2.0133221117  -0.1810120246  0.0000000000
H  2.4898055447  0.1592009850  -0.7603651899
H  2.4898055447  0.1592009850  0.7603651899