5
charge=0, multiplicity=1, basis=def2-QZVPPD, comment=['step_size = 0.003'], AUX_BASIS_CORR=rimp2-def2-QZVPPD, SCF_ALGORITHM=GDM, xc_grid=000099000590, mem_total=3750, num_basis=231, num_pairs=26179, num_threads=1
F  -0.0073302000  1.2994823700  -0.0001006286
H  0.0407933900  0.3668474100  0.0010718125
O  0.0530957100  -1.3468700500  0.0001258483
H  -0.3722465971  -1.7455044719  0.7625789221
H  -0.3730333829  -1.7419428481  -0.7637510979