8
charge=0, multiplicity=1, basis=def2-QZVPPD, comment=['step_size = 0.001'], AUX_BASIS_CORR=rimp2-def2-QZVPPD, SCF_ALGORITHM=GDM, xc_grid=000099000590, mem_total=3750, num_basis=384, num_pairs=64034, num_threads=1
H  0.0000000000  1.6670311849  2.1852602772
C  0.0000000000  0.6036529401  2.1826924161
C  0.0000000000  -0.6035393199  2.1826921239
H  0.0000000000  -1.6683842351  2.1852640228
H  0.0000000000  0.0000000820  -0.5131815300
C  0.0000000000  0.0000000045  -1.5792050800
C  0.0000000000  0.0000000086  -2.7867665500
H  0.0000000000  -0.0000000440  -3.8503522700