6
charge=0, multiplicity=1, basis=def2-QZVPPD, comment=['step_size = 0.001'], AUX_BASIS_CORR=rimp2-def2-QZVPPD, SCF_ALGORITHM=GDM, xc_grid=000099000590, mem_total=3750, num_basis=264, num_pairs=33337, num_threads=1
H  0.8148171437  1.8635529809  0.0000000000
O  -0.0670547575  1.4900308037  0.0000000000
H  0.0712536390  0.5358045745  0.0000000000
H  -0.4125994865  -1.7608351096  0.7600913119
O  0.0632192828  -1.4193149003  0.0000000000
H  -0.4125994865  -1.7608351096  -0.7600913119