5
charge=0, multiplicity=1, basis=def2-QZVPPD, comment=['step_size = 0.003'], AUX_BASIS_CORR=rimp2-def2-QZVPPD, SCF_ALGORITHM=GDM, xc_grid=000099000590, mem_total=3750, num_basis=231, num_pairs=26179, num_threads=1
F  -0.0073302000  1.2994823700  -0.0000691871
H  0.0407933900  0.3668474100  0.0027417030
O  0.0530957100  -1.3468700500  -0.0001169733
H  -0.3727273235  -1.7430155762  0.7633745036
H  -0.3725526565  -1.7444317438  -0.7629555164