5
charge=0, multiplicity=1, basis=def2-QZVPPD, comment=['step_size = 0.001'], AUX_BASIS_CORR=rimp2-def2-QZVPPD, SCF_ALGORITHM=GDM, xc_grid=000099000590, mem_total=3750, num_basis=271, num_pairs=33513, num_threads=1
C  -2.1001427749  -0.5754093298  0.0000000000
C  -2.7326609141  0.4520120467  0.0000000000
H  -1.5423234744  -1.4809190626  0.0000000000
H  -3.2899642769  1.3578133001  0.0000000000
Ar  1.5730729540  0.0401586712  0.0000000000