10
charge=0, multiplicity=1, basis=def2-QZVPPD, comment=['step_size = 0.001'], AUX_BASIS_CORR=rimp2-def2-QZVPPD, SCF_ALGORITHM=GDM, xc_grid=000099000590, mem_total=3750, num_basis=390, num_pairs=69840, num_threads=1
C  1.8243775397  -0.0000004026  -0.0000003582
H  1.4598832813  0.8865299787  0.5154349986
H  1.4603679464  0.0033355982  -1.0256474475
H  1.4603325926  -0.8895854464  0.5104662752
H  2.9126975835  -0.0002740569  -0.0002485860
C  -1.8243775397  0.0000004026  0.0000003582
H  -2.9126975835  0.0002740569  0.0002485860
H  -1.4603679464  -0.0033355982  1.0256474475
H  -1.4598832813  -0.8865299787  -0.5154349986
H  -1.4603325926  0.8895854464  -0.5104662752