7
charge=0, multiplicity=1, basis=def2-QZVPPD, comment=['step_size = 0.001'], AUX_BASIS_CORR=rimp2-def2-QZVPPD, SCF_ALGORITHM=GDM, xc_grid=000099000590, mem_total=3750, num_basis=294, num_pairs=41178, num_threads=1
O  -1.4769572952  -0.0578982281  0.0000000000
H  -1.8502450496  0.8242574143  0.0000000000
H  -0.5158260591  0.0773637943  0.0000000000
N  1.4610657037  0.0142881691  0.0000000000
H  1.6540903509  -0.9805085640  0.0000000000
H  1.9259031067  0.3996247215  0.8132524043
H  1.9259031067  0.3996247215  -0.8132524043