6
charge=0, multiplicity=1, basis=def2-QZVPPD, comment=['step_size = {step_size}'], AUX_BASIS_CORR=rimp2-def2-QZVPPD, SCF_ALGORITHM=GDM, xc_grid=000099000590, mem_total=3750, num_basis=261, num_pairs=33434, num_threads=1
F  0.0000000000  1.2729567300  0.0000000000
H  0.0000002100  0.3236431200  0.0000000000
N  0.0000000200  -1.3728612200  0.0000000000
H  0.9406449200  -1.7483342900  0.0000000000
H  -0.4703227400  -1.7483335200  0.8146225700
H  -0.4703227400  -1.7483335200  -0.8146225700