5
charge=0, multiplicity=1, basis=def2-QZVPPD, comment=['step_size = 0.003'], AUX_BASIS_CORR=rimp2-def2-QZVPPD, SCF_ALGORITHM=GDM, xc_grid=000099000590, mem_total=3750, num_basis=231, num_pairs=26194, num_threads=1
F  -0.0073664356  1.2991030578  0.0000000000
H  0.0411527351  0.3664682204  0.0000000000
O  0.0532101385  -1.3465490052  0.0000000000
H  -0.3733861571  -1.7425064850  0.7631590676
H  -0.3733861571  -1.7425064850  -0.7631590676