9
charge=0, multiplicity=1, basis=def2-QZVPPD, comment=['step_size = 0.001'], AUX_BASIS_CORR=rimp2-def2-QZVPPD, SCF_ALGORITHM=GDM, xc_grid=000099000590, mem_total=3750, num_basis=393, num_pairs=70355, num_threads=1
O  -0.7744675781  0.6531043178  0.0000000000
H  0.1402570336  0.3493980305  0.0000000000
C  -1.6136425272  -0.4879551624  0.0000000000
H  -2.6432339553  -0.1332537787  0.0000000000
H  -1.4623885333  -1.1085037914  -0.8889593954
H  -1.4623885333  -1.1085037914  0.8889593954
O  2.0133769186  -0.1809716802  0.0000000000
H  2.4893644081  0.1588871533  -0.7607769937
H  2.4893644081  0.1588871533  0.7607769937