4
charge=0, multiplicity=1, basis=def2-QZVPPD, comment=['step_size = 0.001'], AUX_BASIS_CORR=rimp2-def2-QZVPPD, SCF_ALGORITHM=GDM, xc_grid=000099000590, mem_total=3750, num_basis=258, num_pairs=29140, num_threads=1
C  -1.6888851485  0.5143272807  0.0000000000
O  -2.5153740905  -0.2591334732  0.0000000000
C  1.6891104915  -0.5141164593  0.0000000000
O  2.5152050295  0.2589753068  0.0000000000