10
charge=0, multiplicity=1, basis=def2-QZVPPD, comment=['step_size = 0.01'], AUX_BASIS_CORR=rimp2-def2-QZVPPD, SCF_ALGORITHM=GDM, xc_grid=000099000590, mem_total=3750, num_basis=390, num_pairs=69840, num_threads=1
C  1.8261427661  -0.0000000011  -0.0000000974
H  1.4619790726  0.8866583292  0.5154510753
H  1.4619344104  0.0030554213  -1.0255782422
H  1.4619791302  -0.8897138790  0.5101588625
H  2.9144626245  0.0000001242  -0.0000314874
C  -1.8261427661  0.0000000011  0.0000000974
H  -2.9144626245  -0.0000001242  0.0000314874
H  -1.4619344104  -0.0030554213  1.0255782422
H  -1.4619790726  -0.8866583292  -0.5154510753
H  -1.4619791302  0.8897138790  -0.5101588625