6
charge=0, multiplicity=1, basis=def2-QZVPPD, comment=['step_size = 0.003'], AUX_BASIS_CORR=rimp2-def2-QZVPPD, SCF_ALGORITHM=GDM, xc_grid=000099000590, mem_total=3750, num_basis=264, num_pairs=33337, num_threads=1
H  0.8148372639  1.8646725829  0.0000000000
O  -0.0671019988  1.4904512735  0.0000000000
H  0.0719385634  0.5353617770  0.0000000000
H  -0.4132103360  -1.7604902473  0.7601365319
O  0.0632990780  -1.4198214739  0.0000000000
H  -0.4132103360  -1.7604902473  -0.7601365319