7
charge=0, multiplicity=1, basis=def2-QZVPPD, comment=['step_size = 0.01'], AUX_BASIS_CORR=rimp2-def2-QZVPPD, SCF_ALGORITHM=GDM, xc_grid=000099000590, mem_total=3750, num_basis=337, num_pairs=52652, num_threads=1
C  0.0000000000  -0.6669584567  2.2271169686
C  0.0000000000  0.6677714633  2.2299674914
H  0.0000000000  -1.2332703008  3.1498848577
H  0.0000000000  -1.2299252954  1.3023574975
H  0.0000000000  1.2301459992  3.1551400223
H  0.0000000000  1.2346714446  1.3075997625
Ar  0.0000000000  -0.0002850333  -1.5632139500