7
charge=0, multiplicity=1, basis=def2-QZVPPD, comment=['step_size = 0.001'], AUX_BASIS_CORR=rimp2-def2-QZVPPD, SCF_ALGORITHM=GDM, xc_grid=000099000590, mem_total=3750, num_basis=321, num_pairs=47459, num_threads=1
C  0.0000606956  2.2781201727  0.0000000000
H  0.0478110352  3.3661662164  0.0000000000
H  0.4961809675  1.8930961729  0.8886126313
H  -1.0408510643  1.9610488759  0.0000000000
H  0.4961809675  1.8930961729  -0.8886126313
N  -0.0000016000  -1.3040765994  0.5502490686
N  -0.0000016000  -1.3040765994  -0.5502490686