7
charge=0, multiplicity=1, basis=def2-QZVPPD, comment=['step_size = 0.003'], AUX_BASIS_CORR=rimp2-def2-QZVPPD, SCF_ALGORITHM=GDM, xc_grid=000099000590, mem_total=3750, num_basis=294, num_pairs=41178, num_threads=1
O  -1.4773664174  -0.0579300063  0.0000000000
H  -1.8510455822  0.8240614081  0.0000000000
H  -0.5163044226  0.0777675147  0.0000000000
N  1.4616404750  0.0143518355  0.0000000000
H  1.6530710398  -0.9807096584  0.0000000000
H  1.9263057067  0.3994312815  0.8134164923
H  1.9263057067  0.3994312815  -0.8134164923