7
charge=0, multiplicity=1, basis=def2-QZVPPD, comment=['step_size = 0.01'], AUX_BASIS_CORR=rimp2-def2-QZVPPD, SCF_ALGORITHM=GDM, xc_grid=000099000590, mem_total=3750, num_basis=337, num_pairs=52652, num_threads=1
C  0.0000000000  -0.6673648872  2.2299915007
C  0.0000000000  0.6673648872  2.2299915007
H  0.0000000000  -1.2317179956  3.1539554620
H  0.0000000000  -1.2322848806  1.3064164526
H  0.0000000000  1.2317179956  3.1539554620
H  0.0000000000  1.2322848806  1.3064164526
Ar  0.0000000000  0.0000000000  -1.5642296364