8
charge=0, multiplicity=1, basis=def2-QZVPPD, comment=['step_size = 0.003'], AUX_BASIS_CORR=rimp2-def2-QZVPPD, SCF_ALGORITHM=GDM, xc_grid=000099000590, mem_total=3750, num_basis=384, num_pairs=64034, num_threads=1
H  0.0000000000  1.6675760716  2.1845365087
C  0.0000000000  0.6034630724  2.1824193769
C  0.0000000000  -0.6037291876  2.1829651631
H  0.0000000000  -1.6678393484  2.1859877913
H  0.0000000000  0.0010263441  -0.5131815300
C  0.0000000000  0.0005143143  -1.5792050800
C  0.0000000000  -0.0002387885  -2.7867665500
H  0.0000000000  -0.0008748923  -3.8503522700