5
charge=0, multiplicity=1, basis=def2-QZVPPD, comment=['step_size = 0.001'], AUX_BASIS_CORR=rimp2-def2-QZVPPD, SCF_ALGORITHM=GDM, xc_grid=000099000590, mem_total=3750, num_basis=321, num_pairs=46297, num_threads=1
O  0.0000000000  1.1629293769  1.4281638719
C  0.0000000000  0.0002462326  1.4251331000
O  0.0000000000  -1.1631139431  1.4281640881
N  0.0000000000  -0.0000004110  -1.6917960700
N  0.0000000000  0.0000002203  -2.7920993300