8
charge=0, multiplicity=1, basis=def2-QZVPPD, comment=['step_size = 0.001'], AUX_BASIS_CORR=rimp2-def2-QZVPPD, SCF_ALGORITHM=GDM, xc_grid=000099000590, mem_total=3750, num_basis=384, num_pairs=64034, num_threads=1
H  0.0000000000  1.6677746807  2.1852623162
C  0.0000000000  0.6036363511  2.1826922195
C  0.0000000000  -0.6036363511  2.1826922195
H  0.0000000000  -1.6677746807  2.1852623162
H  0.0000000000  0.0000000000  -0.5128800652
C  0.0000000000  0.0000000000  -1.5790258973
C  0.0000000000  0.0000000000  -2.7869461106
H  0.0000000000  0.0000000000  -3.8506483684