5
charge=0, multiplicity=1, basis=def2-QZVPPD, comment=['step_size = 0.001'], AUX_BASIS_CORR=rimp2-def2-QZVPPD, SCF_ALGORITHM=GDM, xc_grid=000099000590, mem_total=3750, num_basis=241, num_pairs=27103, num_threads=1
N  0.0655888013  -2.4983511322  0.0000000000
H  -0.3758563604  -2.0820878328  0.8110354546
H  -0.3758563604  -2.0820878328  -0.8110354546
H  -0.1938827446  -3.4773918467  0.0000000000
Ar  0.0008645590  1.0681534707  0.0000000000