8
charge=0, multiplicity=1, basis=def2-QZVPPD, comment=['step_size = 0.001'], AUX_BASIS_CORR=rimp2-def2-QZVPPD, SCF_ALGORITHM=GDM, xc_grid=000099000590, mem_total=3750, num_basis=327, num_pairs=49748, num_threads=1
O  -1.6538275127  0.0622344339  0.0000000000
H  -2.0721909538  -0.7997528803  0.0000000000
H  -0.7140191376  -0.1275510501  0.0000000000
C  1.8240302364  -0.0038760921  0.0000000000
H  1.4086751257  0.4647362786  0.8910359848
H  1.4086751257  0.4647362786  -0.8910359848
H  2.9042408738  0.1249007161  0.0000000000
H  1.5936461207  -1.0686229712  0.0000000000