7
charge=0, multiplicity=1, basis=def2-QZVPPD, comment=['step_size = {step_size}'], mem_total=3750, AUX_BASIS_CORR=rimp2-def2-QZVPPD, SCF_ALGORITHM=GDM, xc_grid=000099000590, num_basis=294, num_pairs=41178, num_threads=1
O  -1.4769593600  -0.0578987100  0.0000000000
H  -1.8502388700  0.8242610200  0.0000000000
H  -0.5158230000  0.0773619400  0.0000000000
N  1.4611711700  0.0142682700  0.0000000000
H  1.6535690700  -0.9806040200  0.0000000000
H  1.9254428200  0.3998136400  0.8134198800
H  1.9254428200  0.3998136400  -0.8134198800