8
charge=0, multiplicity=1, basis=def2-QZVPPD, comment=['step_size = 0.001'], AUX_BASIS_CORR=rimp2-def2-QZVPPD, SCF_ALGORITHM=GDM, xc_grid=000099000590, mem_total=3750, num_basis=384, num_pairs=64034, num_threads=1
H  0.0000000000  1.6674102378  2.1852609484
C  0.0000000000  0.6034165744  2.1826923795
C  0.0000000000  -0.6034165744  2.1826923795
H  0.0000000000  -1.6674102378  2.1852609484
H  0.0000000000  0.0000000000  -0.5131151550
C  0.0000000000  0.0000000000  -1.5791647907
C  0.0000000000  0.0000000000  -2.7868068357
H  0.0000000000  0.0000000000  -3.8504188933