8
charge=0, multiplicity=1, basis=def2-QZVPPD, comment=['step_size = 0.001'], AUX_BASIS_CORR=rimp2-def2-QZVPPD, SCF_ALGORITHM=GDM, xc_grid=000099000590, mem_total=3750, num_basis=324, num_pairs=48273, num_threads=1
N  -0.0593085723  1.6406796852  0.0000000000
H  0.3234080080  2.1122988601  -0.8105417246
H  0.3234080080  2.1122988601  0.8105417246
H  0.3190463040  0.6977252371  0.0000000000
N  0.0345292866  -1.5879576156  0.0000000000
H  -0.9353308303  -1.2929482171  0.0000000000
H  0.1568802960  -2.1809568343  -0.8120107374
H  0.1568802960  -2.1809568343  0.8120107374