5
charge=0, multiplicity=1, basis=def2-QZVPPD, comment=['step_size = 0.001'], AUX_BASIS_CORR=rimp2-def2-QZVPPD, SCF_ALGORITHM=GDM, xc_grid=000099000590, mem_total=3750, num_basis=271, num_pairs=33513, num_threads=1
C  -2.0999497451  -0.5757227902  0.0000000000
C  -2.7328538659  0.4523255133  0.0000000000
H  -1.5420040056  -1.4814377374  0.0000000000
H  -3.2902835631  1.3583319999  0.0000000000
Ar  1.5730729260  0.0401586688  0.0000000000