6
charge=0, multiplicity=1, basis=def2-QZVPPD, comment=['step_size = 0.001'], AUX_BASIS_CORR=rimp2-def2-QZVPPD, SCF_ALGORITHM=GDM, xc_grid=000099000590, mem_total=3750, num_basis=261, num_pairs=33434, num_threads=1
F  -0.0000006101  1.2729567300  -0.0000000000
H  0.0000344826  0.3236431200  0.0000000000
N  0.0000625349  -1.3728612200  0.0000000000
H  0.9407848111  -1.7480774443  -0.0000000000
H  -0.4708383731  -1.7484619426  0.8142441030
H  -0.4708383731  -1.7484619426  -0.8142441030