8
charge=0, multiplicity=1, basis=def2-QZVPPD, comment=['step_size = 0.003'], AUX_BASIS_CORR=rimp2-def2-QZVPPD, SCF_ALGORITHM=GDM, xc_grid=000099000590, mem_total=3750, num_basis=384, num_pairs=64034, num_threads=1
H  0.0000000000  1.6677026721  2.1867756227
C  0.0000000000  0.6035961254  2.1823389101
C  0.0000000000  -0.6035961346  2.1830456299
H  0.0000000000  -1.6677127479  2.1837486773
H  0.0000000000  0.0006065424  -0.5131815300
C  0.0000000000  -0.0001455057  -1.5792050800
C  0.0000000000  0.0001533335  -2.7867665500
H  0.0000000000  -0.0006895606  -3.8503522700