4
charge=0, multiplicity=1, basis=def2-QZVPPD, comment=['step_size = 0.01'], AUX_BASIS_CORR=rimp2-def2-QZVPPD, SCF_ALGORITHM=GDM, xc_grid=000099000590, mem_total=3750, num_basis=211, num_pairs=20332, num_threads=1
H  3.0181996205  -0.7817777031  0.0000000000
O  2.5645087272  0.0630216680  0.0000000000
H  1.6332873473  -0.1663634680  0.0000000000
Ar  -1.1437501729  -0.0013128767  0.0000000000