6
charge=0, multiplicity=1, basis=def2-QZVPPD, comment=['step_size = 0.003'], AUX_BASIS_CORR=rimp2-def2-QZVPPD, SCF_ALGORITHM=GDM, xc_grid=000099000590, mem_total=3750, num_basis=261, num_pairs=33434, num_threads=1
F  0.0000728433  1.2729567300  0.0000000000
H  -0.0027971109  0.3236431194  -0.0000000002
N  0.0001411014  -1.3728612200  0.0000000000
H  0.9405148192  -1.7489801296  -0.0000000000
H  -0.4705257273  -1.7480106003  0.8145804885
H  -0.4705257273  -1.7480106002  -0.8145804885