4
charge=0, multiplicity=1, basis=def2-QZVPPD, comment=['step_size = 0.001'], AUX_BASIS_CORR=rimp2-def2-QZVPPD, SCF_ALGORITHM=GDM, xc_grid=000099000590, mem_total=3750, num_basis=211, num_pairs=20362, num_threads=1
H  3.0122448500  -0.7843252533  0.0000000000
O  2.5633647349  0.0630813394  0.0000000000
H  1.6311651694  -0.1624335730  0.0000000000
Ar  -1.1430885954  -0.0013716219  0.0000000000