6
charge=0, multiplicity=1, basis=def2-QZVPPD, comment=['step_size = 0.001'], AUX_BASIS_CORR=rimp2-def2-QZVPPD, SCF_ALGORITHM=GDM, xc_grid=000099000590, mem_total=3750, num_basis=264, num_pairs=33337, num_threads=1
H  0.8148592777  1.8642837989  0.0000000000
O  -0.0670218211  1.4900489498  0.0000000000
H  0.0706545173  0.5347989781  0.0000000000
H  -0.4125459324  -1.7607804196  0.7602379209
O  0.0632146929  -1.4193226248  0.0000000000
H  -0.4125459324  -1.7607804196  -0.7602379209