8
charge=0, multiplicity=1, basis=def2-QZVPPD, comment=['step_size = 0.001'], AUX_BASIS_CORR=rimp2-def2-QZVPPD, SCF_ALGORITHM=GDM, xc_grid=000099000590, mem_total=3750, num_basis=384, num_pairs=64034, num_threads=1
H  0.0000000000  1.6677016588  2.1852622064
C  0.0000000000  0.6035972278  2.1826922904
C  0.0000000000  -0.6035972278  2.1826922904
H  0.0000000000  -1.6677016588  2.1852622064
H  0.0000000000  0.0000000000  -0.5139465088
C  0.0000000000  0.0000000000  -1.5791346177
C  0.0000000000  0.0000000000  -2.7867247852
H  0.0000000000  0.0000000000  -3.8509241577