8
charge=0, multiplicity=1, basis=def2-QZVPPD, comment=['step_size = 0.001'], AUX_BASIS_CORR=rimp2-def2-QZVPPD, SCF_ALGORITHM=GDM, xc_grid=000099000590, mem_total=3750, num_basis=324, num_pairs=48371, num_threads=1
N  -0.0593765026  1.6406333833  0.0000000000
H  0.3238075761  2.1126124554  -0.8101629207
H  0.3238075761  2.1126124554  0.8101629207
H  0.3191993921  0.6977518987  0.0000000000
N  0.0344423918  -1.5879915239  0.0000000000
H  -0.9351796136  -1.2923781097  0.0000000000
H  0.1574041727  -2.1810115800  -0.8118697083
H  0.1574041727  -2.1810115800  0.8118697083