8
charge=0, multiplicity=1, basis=def2-QZVPPD, comment=['step_size = 0.01'], AUX_BASIS_CORR=rimp2-def2-QZVPPD, SCF_ALGORITHM=GDM, xc_grid=000099000590, mem_total=3750, num_basis=384, num_pairs=64034, num_threads=1
H  0.0000000000  1.6677069440  2.1866851323
C  0.0000000000  0.6035964606  2.1840753743
C  0.0000000000  -0.6035964606  2.1840753743
H  0.0000000000  -1.6677069440  2.1866851323
H  0.0000000000  0.0000000000  -0.5145651056
C  0.0000000000  0.0000000000  -1.5805913483
C  0.0000000000  0.0000000000  -2.7881533068
H  0.0000000000  0.0000000000  -3.8517396267