6
charge=0, multiplicity=1, basis=def2-QZVPPD, comment=['step_size = 0.001'], AUX_BASIS_CORR=rimp2-def2-QZVPPD, SCF_ALGORITHM=GDM, xc_grid=000099000590, mem_total=3750, num_basis=327, num_pairs=50678, num_threads=1
H  0.0000000000  -0.7609663575  -2.5311333320
O  0.0000000000  0.0000676782  -1.9463955600
H  0.0000000000  0.7598917025  -2.5303061680
O  0.0000000000  -1.1628517548  0.8288902782
C  0.0000000000  0.0000001925  0.8097848000
O  0.0000000000  1.1628516452  0.8288903018