7
charge=0, multiplicity=1, basis=def2-QZVPPD, comment=['step_size = 0.001'], AUX_BASIS_CORR=rimp2-def2-QZVPPD, SCF_ALGORITHM=GDM, xc_grid=000099000590, mem_total=3750, num_basis=294, num_pairs=41556, num_threads=1
F  -0.0000007000  -1.4638424100  0.0000001362
H  0.0000204000  -0.5439340900  -0.0000063763
C  -0.0000006300  1.7666638200  -0.0000878235
H  0.5163492404  1.4161792251  0.8943228391
H  0.5156999596  1.4166176349  -0.8932340809
H  -1.0320430000  1.4163853600  -0.0000179124
H  -0.0000060000  2.8541270000  -0.0000213364