6
charge=0, multiplicity=1, basis=def2-QZVPPD, comment=['step_size = 0.003'], AUX_BASIS_CORR=rimp2-def2-QZVPPD, SCF_ALGORITHM=GDM, xc_grid=000099000590, mem_total=3750, num_basis=291, num_pairs=41160, num_threads=1
F  -0.0000000100  1.7596153300  -0.0000718479
H  0.0000003400  0.8341588100  0.0028087350
C  0.0000000499  -1.3170489420  -0.6040502978
C  0.0000000501  -1.3166891980  0.6039378822
H  -0.0000006304  -1.3227201687  1.6687528792
H  -0.0000006296  -1.3222925913  -1.6688687008