6
charge=0, multiplicity=1, basis=def2-QZVPPD, comment=['step_size = 0.001'], AUX_BASIS_CORR=rimp2-def2-QZVPPD, SCF_ALGORITHM=GDM, xc_grid=000099000590, mem_total=3750, num_basis=264, num_pairs=33337, num_threads=1
H  0.8150546085  1.8636860578  0.0000000000
O  -0.0670753399  1.4900742994  0.0000000000
H  0.0713443242  0.5349836851  0.0000000000
H  -0.4129443029  -1.7610857627  0.7607168418
O  0.0632626419  -1.4192834707  0.0000000000
H  -0.4129443029  -1.7610857627  -0.7607168418