5
charge=0, multiplicity=1, basis=def2-QZVPPD, comment=['step_size = 0.01'], AUX_BASIS_CORR=rimp2-def2-QZVPPD, SCF_ALGORITHM=GDM, xc_grid=000099000590, mem_total=3750, num_basis=271, num_pairs=33518, num_threads=1
C  -2.0980399127  -0.5748438201  0.0000000000
C  -2.7323143709  0.4519280977  0.0000000000
H  -1.5387894665  -1.4796122807  0.0000000000
H  -3.2910569420  1.3569852417  0.0000000000
Ar  1.5722758898  0.0400019520  0.0000000000