9
charge=0, multiplicity=1, basis=def2-QZVPPD, comment=['step_size = 0.01'], AUX_BASIS_CORR=rimp2-def2-QZVPPD, SCF_ALGORITHM=GDM, xc_grid=000099000590, mem_total=3750, num_basis=393, num_pairs=70355, num_threads=1
O  -0.7739535734  0.6521266998  0.0000000000
H  0.1403060210  0.3470213202  0.0000000000
C  -1.6151087190  -0.4874732809  0.0000000000
H  -2.6440743643  -0.1309569677  0.0000000000
H  -1.4649580015  -1.1082887541  -0.8889602956
H  -1.4649580015  -1.1082887541  0.8889602956
O  2.0143153169  -0.1806846848  0.0000000000
H  2.4895330888  0.1613235675  -0.7603576294
H  2.4895330888  0.1613235675  0.7603576294