10
charge=0, multiplicity=1, basis=def2-QZVPPD, comment=['step_size = 0.01'], AUX_BASIS_CORR=rimp2-def2-QZVPPD, SCF_ALGORITHM=GDM, xc_grid=000099000590, mem_total=3750, num_basis=390, num_pairs=69840, num_threads=1
C  1.8243775363  -0.0000013477  0.0000013051
H  1.4612522073  0.8876746609  0.5144352759
H  1.4630463752  0.0040807852  -1.0265969042
H  1.4562851686  -0.8886915161  0.5091329463
H  2.9126976776  -0.0030479033  0.0030131042
C  -1.8243775437  -0.0000013477  0.0000013851
H  -2.9126975024  -0.0030481233  0.0030770842
H  -1.4572821848  -0.0020300548  1.0245540758
H  -1.4591672927  -0.8856376791  -0.5164648441
H  -1.4641343914  0.8907318839  -0.5111827737