8
charge=0, multiplicity=1, basis=def2-QZVPPD, comment=['step_size = 0.001'], AUX_BASIS_CORR=rimp2-def2-QZVPPD, SCF_ALGORITHM=GDM, xc_grid=000099000590, mem_total=3750, num_basis=324, num_pairs=48371, num_threads=1
N  -0.0593069030  1.6406791958  0.0000000000
H  0.3234068185  2.1123089219  -0.8105351701
H  0.3234068185  2.1123089219  0.8105351701
H  0.3190142047  0.6977147192  0.0000000000
N  0.0344594819  -1.5879001656  0.0000000000
H  -0.9352618395  -1.2925514821  0.0000000000
H  0.1573363888  -2.1815557197  -0.8114750563
H  0.1573363888  -2.1815557197  0.8114750563