8
charge=0, multiplicity=1, basis=def2-QZVPPD, comment=['step_size = 0.01'], AUX_BASIS_CORR=rimp2-def2-QZVPPD, SCF_ALGORITHM=GDM, xc_grid=000099000590, mem_total=3750, num_basis=327, num_pairs=49748, num_threads=1
O  -1.6530595679  0.0620379604  0.0000000000
H  -2.0707710432  -0.8010370124  0.0000000000
H  -0.7123143670  -0.1268456256  0.0000000000
C  1.8230667586  -0.0036309831  0.0000000000
H  1.4098566794  0.4668963642  0.8910195823
H  1.4098566794  0.4668963642  -0.8910195823
H  2.9038817813  0.1200702948  0.0000000000
H  1.5878015465  -1.0673343048  0.0000000000