8
charge=0, multiplicity=1, basis=def2-QZVPPD, comment=['step_size = 0.003'], AUX_BASIS_CORR=rimp2-def2-QZVPPD, SCF_ALGORITHM=GDM, xc_grid=000099000590, mem_total=3750, num_basis=327, num_pairs=49748, num_threads=1
O  -1.6538510800  0.0622771200  -0.0000676339
H  -2.0725215900  -0.8003331400  -0.0003348062
H  -0.7133127000  -0.1276480500  0.0027339194
C  1.8240301200  -0.0038760600  -0.0000892104
H  1.4081691176  0.4647144957  0.8907314171
H  1.4091806424  0.4647556043  -0.8913359829
H  2.9042414700  0.1249006600  0.0006304253
H  1.5936456300  -1.0686210400  -0.0002893616