7
charge=0, multiplicity=1, basis=def2-QZVPPD, comment=['step_size = 0.001'], AUX_BASIS_CORR=rimp2-def2-QZVPPD, SCF_ALGORITHM=GDM, xc_grid=000099000590, mem_total=3750, num_basis=337, num_pairs=52652, num_threads=1
C  0.0000000000  -0.6673642010  2.2286083405
C  0.0000000000  0.6673657190  2.2284761195
H  0.0000000000  -1.2314638328  3.1521195443
H  0.0000000000  -1.2325513978  1.3045712112
H  0.0000000000  1.2319524672  3.1529053357
H  0.0000000000  1.2320453422  1.3053860488
Ar  0.0000000000  -0.0000000165  -1.5632139500