4
charge=0, multiplicity=1, basis=def2-QZVPPD, comment=['step_size = 0.003'], AUX_BASIS_CORR=rimp2-def2-QZVPPD, SCF_ALGORITHM=GDM, xc_grid=000099000590, mem_total=3750, num_basis=198, num_pairs=19055, num_threads=1
F  1.3999148209  -0.0095947928  0.0000000000
H  0.4853168196  0.1173640777  0.0000000000
F  -1.3359932581  0.0460037386  0.0000000000
H  -1.6902954919  -0.8037052495  0.0000000000