9
charge=0, multiplicity=1, basis=def2-QZVPPD, comment=['step_size = 0.003'], AUX_BASIS_CORR=rimp2-def2-QZVPPD, SCF_ALGORITHM=GDM, xc_grid=000099000590, mem_total=3750, num_basis=393, num_pairs=70313, num_threads=1
O  -0.7748653140  0.6532455719  0.0000000000
H  0.1399130944  0.3497176381  0.0000000000
C  -1.6138026645  -0.4880004847  0.0000000000
H  -2.6434617358  -0.1334990712  0.0000000000
H  -1.4624202509  -1.1085179715  -0.8889574277
H  -1.4624202509  -1.1085179715  0.8889574277
O  2.0137714280  -0.1810445398  0.0000000000
H  2.4906609519  0.1585912624  -0.7603653866
H  2.4906609519  0.1585912624  0.7603653866