5
charge=0, multiplicity=1, basis=def2-QZVPPD, comment=['step_size = 0.01'], AUX_BASIS_CORR=rimp2-def2-QZVPPD, SCF_ALGORITHM=GDM, xc_grid=000099000590, mem_total=3750, num_basis=321, num_pairs=46290, num_threads=1
O  0.0000000000  1.1630224251  1.4291058881
C  0.0000000000  0.0000000000  1.4260693399
O  0.0000000000  -1.1630224251  1.4291058881
N  0.0000000000  0.0000000000  -1.6932719777
N  0.0000000000  0.0000000000  -2.7935775214