5
charge=0, multiplicity=1, basis=def2-QZVPPD, comment=['step_size = 0.001'], AUX_BASIS_CORR=rimp2-def2-QZVPPD, SCF_ALGORITHM=GDM, xc_grid=000099000590, mem_total=3750, num_basis=258, num_pairs=30908, num_threads=1
F  0.0000000000  0.0000000000  -1.9576337799
H  0.0000000000  0.0000000000  -1.0272659078
N  0.0000000000  0.0000000000  0.8200338276
C  0.0000000000  0.0000000000  1.9732877069
H  0.0000000000  0.0000000000  3.0409777016