6
charge=0, multiplicity=1, basis=def2-QZVPPD, comment=['step_size = 0.001'], AUX_BASIS_CORR=rimp2-def2-QZVPPD, SCF_ALGORITHM=GDM, xc_grid=000099000590, mem_total=3750, num_basis=274, num_pairs=35091, num_threads=1
C  -0.0000000000  2.6306278635  0.0000000000
H  -0.5126935791  2.2673909363  0.8880081285
H  -0.5126935791  2.2673909363  -0.8880081285
H  0.0000056174  3.7183876065  0.0000000000
H  1.0253815711  2.2673830198  0.0000000000
Ar  -0.0000000000  -1.0552526351  0.0000000000