5
charge=0, multiplicity=1, basis=def2-QZVPPD, comment=['step_size = 0.01'], AUX_BASIS_CORR=rimp2-def2-QZVPPD, SCF_ALGORITHM=GDM, xc_grid=000099000590, mem_total=3750, num_basis=241, num_pairs=27103, num_threads=1
N  0.0653045994  -2.4980784254  0.0000000000
H  -0.3790860581  -2.0857158131  0.8114181894
H  -0.3790860581  -2.0857158131  -0.8114181894
H  -0.1870354736  -3.4790399300  0.0000000000
Ar  0.0009543633  1.0682824666  0.0000000000