6
charge=0, multiplicity=1, basis=def2-QZVPPD, comment=['step_size = 0.001'], AUX_BASIS_CORR=rimp2-def2-QZVPPD, SCF_ALGORITHM=GDM, xc_grid=000099000590, mem_total=3750, num_basis=274, num_pairs=35091, num_threads=1
C  -0.0000000048  2.6307156132  0.0000000000
H  -0.5130603490  2.2671508217  0.8886433885
H  -0.5130603490  2.2671508217  -0.8886433885
H  0.0000056146  3.7180628123  0.0000000000
H  1.0261151702  2.2671428761  0.0000000000
Ar  0.0000000000  -1.0552526263  0.0000000000