8
charge=0, multiplicity=1, basis=def2-QZVPPD, comment=['step_size = 0.001'], AUX_BASIS_CORR=rimp2-def2-QZVPPD, SCF_ALGORITHM=GDM, xc_grid=000099000590, mem_total=3750, num_basis=327, num_pairs=49748, num_threads=1
O  -1.6538510438  0.0622760618  0.0000000000
H  -2.0725344769  -0.8003268193  0.0000000000
H  -0.7133095748  -0.1276429060  0.0000000000
C  1.8239390254  -0.0039458292  0.0000000000
H  1.4091069686  0.4650882081  0.8910528444
H  1.4091069686  0.4650882081  -0.8910528444
H  2.9041369040  0.1251662530  0.0000000000
H  1.5939798548  -1.0687568900  0.0000000000