7
charge=0, multiplicity=1, basis=def2-QZVPPD, comment=['step_size = 0.001'], AUX_BASIS_CORR=rimp2-def2-QZVPPD, SCF_ALGORITHM=GDM, xc_grid=000099000590, mem_total=3750, num_basis=294, num_pairs=41556, num_threads=1
F  -0.0000007000  -1.4638420271  0.0000000000
H  0.0000203990  -0.5439386751  0.0000000000
C  -0.0000006395  1.7665769118  0.0000000000
H  0.5159158522  1.4164535659  0.8935901074
H  0.5159158522  1.4164535659  -0.8935901074
H  -1.0318253841  1.4164405417  0.0000000000
H  -0.0000060071  2.8549937134  0.0000000000