8
charge=0, multiplicity=1, basis=def2-QZVPPD, comment=['step_size = 0.003'], AUX_BASIS_CORR=rimp2-def2-QZVPPD, SCF_ALGORITHM=GDM, xc_grid=000099000590, mem_total=3750, num_basis=324, num_pairs=48371, num_threads=1
N  -0.0594341776  1.6407444330  0.0000000000
H  0.3244425537  2.1119688590  -0.8102473134
H  0.3244425537  2.1119688590  0.8102473134
H  0.3171159215  0.6970702751  0.0000000000
N  0.0346596435  -1.5879509259  0.0000000000
H  -0.9348097840  -1.2916818491  0.0000000000
H  0.1565174086  -2.1814288254  -0.8117490197
H  0.1565174086  -2.1814288254  0.8117490197