8
charge=0, multiplicity=1, basis=def2-QZVPPD, comment=['step_size = 0.001'], AUX_BASIS_CORR=rimp2-def2-QZVPPD, SCF_ALGORITHM=GDM, xc_grid=000099000590, mem_total=3750, num_basis=324, num_pairs=48273, num_threads=1
N  -0.0593083000  1.6406350200  -0.0000019279
H  0.3234913575  2.1126585066  -0.8102564583
H  0.3235042825  2.1126759134  0.8102843617
H  0.3188471400  0.6976159400  -0.0000014716
N  0.0344957700  -1.5879305200  -0.0000756553
H  -0.9352932700  -1.2927435300  -0.0000232447
H  0.1570073810  -2.1808533806  -0.8112109595
H  0.1571970990  -2.1816482594  0.8122857405