6
charge=0, multiplicity=1, basis=def2-QZVPPD, comment=['step_size = 0.001'], AUX_BASIS_CORR=rimp2-def2-QZVPPD, SCF_ALGORITHM=GDM, xc_grid=000099000590, mem_total=3750, num_basis=390, num_pairs=68687, num_threads=1
C  1.7284120831  0.2785093772  0.0000000000
O  0.9775846692  1.1686195611  0.0000000000
O  2.4819297727  -0.6058091013  0.0000000000
C  -1.7284120831  -0.2785093772  0.0000000000
O  -0.9775846692  -1.1686195611  0.0000000000
O  -2.4819297727  0.6058091013  0.0000000000