7
charge=0, multiplicity=1, basis=def2-QZVPPD, comment=['step_size = 0.01'], AUX_BASIS_CORR=rimp2-def2-QZVPPD, SCF_ALGORITHM=GDM, xc_grid=000099000590, mem_total=3750, num_basis=321, num_pairs=47459, num_threads=1
C  -0.0000085611  2.2801444774  0.0000000000
H  0.0491039638  3.3672170777  0.0000000000
H  0.4957451202  1.8943163742  0.8888445999
H  -1.0415807479  1.9642699268  0.0000000000
H  0.4957451202  1.8943163742  -0.8888445999
N  0.0000391746  -1.3051855162  0.5502492186
N  0.0000391746  -1.3051855162  -0.5502492186