7
charge=0, multiplicity=1, basis=def2-QZVPPD, comment=['step_size = 0.003'], AUX_BASIS_CORR=rimp2-def2-QZVPPD, SCF_ALGORITHM=GDM, xc_grid=000099000590, mem_total=3750, num_basis=337, num_pairs=52652, num_threads=1
C  0.0000000000  -0.6673653798  2.2284275465
C  0.0000000000  0.6673653798  2.2284275465
H  0.0000000000  -1.2304132721  3.1532039768
H  0.0000000000  -1.2335928789  1.3056698293
H  0.0000000000  1.2304132721  3.1532039768
H  0.0000000000  1.2335928789  1.3056698293
Ar  0.0000000000  0.0000000000  -1.5632148185