8
charge=0, multiplicity=1, basis=def2-QZVPPD, comment=['step_size = 0.001'], AUX_BASIS_CORR=rimp2-def2-QZVPPD, SCF_ALGORITHM=GDM, xc_grid=000099000590, mem_total=3750, num_basis=327, num_pairs=49748, num_threads=1
O  -1.6538746473  0.0623198061  0.0000000000
H  -2.0728522262  -0.8009133997  0.0000000000
H  -0.7126062624  -0.1277450499  0.0000000000
C  1.8240300036  -0.0038760279  0.0000000000
H  1.4086746343  0.4647338214  0.8910314152
H  1.4086746343  0.4647338214  -0.8910314152
H  2.9042420662  0.1249006039  0.0000000000
H  1.5936451393  -1.0686191088  0.0000000000