9
charge=0, multiplicity=1, basis=def2-QZVPPD, comment=['step_size = 0.001'], AUX_BASIS_CORR=rimp2-def2-QZVPPD, SCF_ALGORITHM=GDM, xc_grid=000099000590, mem_total=3750, num_basis=393, num_pairs=70355, num_threads=1
O  -0.7744672300  0.6531056000  0.0000000040
H  0.1402446500  0.3493741000  0.0000008695
C  -1.6136411200  -0.4879550600  -0.0000000088
H  -2.6432310200  -0.1332504000  -0.0000000247
H  -1.4623902310  -1.1085094759  -0.8889562322
H  -1.4623901690  -1.1085095641  0.8889563278
O  2.0133203300  -0.1810094600  0.0000676097
H  2.4901463106  0.1594320625  -0.7609034661
H  2.4894711094  0.1589522775  0.7598295539