8
charge=0, multiplicity=1, basis=def2-QZVPPD, comment=['step_size = 0.001'], AUX_BASIS_CORR=rimp2-def2-QZVPPD, SCF_ALGORITHM=GDM, xc_grid=000099000590, mem_total=3750, num_basis=324, num_pairs=48273, num_threads=1
N  -0.0593082525  1.6406336682  0.0000000000
H  0.3235000588  2.1126693942  -0.8102754991
H  0.3235000588  2.1126693942  0.8102754991
H  0.3188429546  0.6976308749  0.0000000000
N  0.0345537608  -1.5879793184  0.0000000000
H  -0.9360180164  -1.2925178658  0.0000000000
H  0.1570612648  -2.1810249010  -0.8114088888
H  0.1570612648  -2.1810249010  0.8114088888