6
charge=0, multiplicity=1, basis=def2-QZVPPD, comment=['step_size = 0.001'], AUX_BASIS_CORR=rimp2-def2-QZVPPD, SCF_ALGORITHM=GDM, xc_grid=000099000590, mem_total=3750, num_basis=261, num_pairs=33434, num_threads=1
F  -0.0000000000  1.2730095884  0.0000000000
H  0.0000002102  0.3226935140  0.0000000000
N  0.0000000200  -1.3728555179  0.0000000000
H  0.9407483067  -1.7483763068  0.0000000000
H  -0.4703744334  -1.7483755367  0.8147121056
H  -0.4703744334  -1.7483755367  -0.8147121056