7
charge=0, multiplicity=1, basis=def2-QZVPPD, comment=['step_size = 0.001'], AUX_BASIS_CORR=rimp2-def2-QZVPPD, SCF_ALGORITHM=GDM, xc_grid=000099000590, mem_total=3750, num_basis=321, num_pairs=47459, num_threads=1
C  0.0000629341  2.2782076529  0.0000000000
H  0.0477745232  3.3653415812  0.0000000000
H  0.4963105289  1.8930157541  0.8888442947
H  -1.0411003521  1.9609925470  0.0000000000
H  0.4963105289  1.8930157541  -0.8888442947
N  -0.0000015991  -1.3040765925  0.5504380814
N  -0.0000015991  -1.3040765925  -0.5504380814