9
charge=0, multiplicity=1, basis=def2-QZVPPD, comment=['step_size = 0.001'], AUX_BASIS_CORR=rimp2-def2-QZVPPD, SCF_ALGORITHM=GDM, xc_grid=000099000590, mem_total=3750, num_basis=393, num_pairs=70355, num_threads=1
O  -0.7744668819  0.6531068822  0.0000000000
H  0.1402322664  0.3493501695  0.0000000000
C  -1.6136397128  -0.4879549576  0.0000000000
H  -2.6432280847  -0.1332470213  0.0000000000
H  -1.4623918667  -1.1085152486  -0.8889531646
H  -1.4623918667  -1.1085152486  0.8889531646
O  2.0132637414  -0.1810472398  0.0000000000
H  2.4902530119  0.1594971867  -0.7599560263
H  2.4902530119  0.1594971867  0.7599560263