6
charge=0, multiplicity=1, basis=def2-QZVPPD, comment=['step_size = 0.003'], AUX_BASIS_CORR=rimp2-def2-QZVPPD, SCF_ALGORITHM=GDM, xc_grid=000099000590, mem_total=3750, num_basis=327, num_pairs=50683, num_threads=1
H  0.0000000000  -0.7604370321  -2.5307162521
O  0.0000000000  0.0000000000  -1.9464026110
H  0.0000000000  0.7604370321  -2.5307162521
O  0.0000000000  -1.1628369690  0.8291696000
C  0.0000000000  0.0000000000  0.8090490208
O  0.0000000000  1.1628369690  0.8291696000