7
charge=0, multiplicity=1, basis=def2-QZVPPD, comment=['step_size = 0.001'], AUX_BASIS_CORR=rimp2-def2-QZVPPD, SCF_ALGORITHM=GDM, xc_grid=000099000590, mem_total=3750, num_basis=294, num_pairs=41178, num_threads=1
O  -1.4769603261  -0.0578990568  0.0000000000
H  -1.8502401689  0.8242640218  0.0000000000
H  -0.5158071870  0.0773657758  0.0000000000
N  1.4611864650  0.0143424370  0.0000000000
H  1.6537096934  -0.9813606933  0.0000000000
H  1.9252666609  0.3996760586  0.8130882076
H  1.9252666609  0.3996760586  -0.8130882076