10
charge=0, multiplicity=1, basis=def2-QZVPPD, comment=['step_size = 0.01'], AUX_BASIS_CORR=rimp2-def2-QZVPPD, SCF_ALGORITHM=GDM, xc_grid=000099000590, mem_total=3750, num_basis=390, num_pairs=69840, num_threads=1
C  1.8243773937  0.0003249949  -0.0002619999
H  1.4616235857  0.8880655731  0.5143233306
H  1.4626555815  0.0044697000  -1.0267204101
H  1.4563041658  -0.8882937477  0.5090096942
H  2.9126975228  -0.0029314656  0.0023318570
C  -1.8243773937  -0.0003249949  0.0002619999
H  -2.9126975228  0.0029314656  -0.0023318570
H  -1.4626555815  -0.0044697000  1.0267204101
H  -1.4616235857  -0.8880655731  -0.5143233306
H  -1.4563041658  0.8882937477  -0.5090096942