10
charge=0, multiplicity=1, basis=def2-QZVPPD, comment=['step_size = 0.01'], AUX_BASIS_CORR=rimp2-def2-QZVPPD, SCF_ALGORITHM=GDM, xc_grid=000099000590, mem_total=3750, num_basis=390, num_pairs=69840, num_threads=1
C  1.8243775428  0.0000013457  0.0000013082
H  1.4562798371  0.8856316416  0.5144333324
H  1.4630319852  0.0020416558  -1.0265978638
H  1.4612718665  -0.8907345153  0.5091329333
H  2.9126976805  0.0030451930  0.0030160014
C  -1.8243775372  0.0000013457  0.0000013882
H  -2.9126974995  0.0030449730  0.0030799814
H  -1.4572965748  -0.0040691842  1.0245531162
H  -1.4641396629  -0.8876806984  -0.5164667876
H  -1.4591476935  0.8886888847  -0.5111827867