7
charge=0, multiplicity=1, basis=def2-QZVPPD, comment=['step_size = 0.001'], AUX_BASIS_CORR=rimp2-def2-QZVPPD, SCF_ALGORITHM=GDM, xc_grid=000099000590, mem_total=3750, num_basis=321, num_pairs=47459, num_threads=1
C  0.0001504719  2.2782055512  0.0000000000
H  0.0477932075  3.3653254057  0.0000000000
H  0.4961521400  1.8931532588  0.8885246744
H  -1.0418444280  1.9607590381  0.0000000000
H  0.4961521400  1.8931532588  -0.8885246744
N  -0.0000016037  -1.3040766033  0.5502491339
N  -0.0000016037  -1.3040766033  -0.5502491339