6
charge=0, multiplicity=1, basis=def2-QZVPPD, comment=['step_size = 0.001'], AUX_BASIS_CORR=rimp2-def2-QZVPPD, SCF_ALGORITHM=GDM, xc_grid=000099000590, mem_total=3750, num_basis=390, num_pairs=68687, num_threads=1
C  1.7285251779  0.2783786666  0.0000000000
O  0.9776240950  1.1685726365  0.0000000000
O  2.4818060488  -0.6056640425  0.0000000000
C  -1.7285251779  -0.2783786666  0.0000000000
O  -0.9776240950  -1.1685726365  0.0000000000
O  -2.4818060488  0.6056640425  0.0000000000