5
charge=0, multiplicity=1, basis=def2-QZVPPD, comment=['step_size = 0.001'], AUX_BASIS_CORR=rimp2-def2-QZVPPD, SCF_ALGORITHM=GDM, xc_grid=000099000590, mem_total=3750, num_basis=231, num_pairs=26194, num_threads=1
F  -0.0073308446  1.2994958249  0.0000000000
H  0.0408036229  0.3665969403  0.0000000000
O  0.0530617223  -1.3469023956  0.0000000000
H  -0.3723693266  -1.7434685695  0.7626107637
H  -0.3723693266  -1.7434685695  -0.7626107637