6
charge=0, multiplicity=1, basis=def2-QZVPPD, comment=['step_size = 0.003'], AUX_BASIS_CORR=rimp2-def2-QZVPPD, SCF_ALGORITHM=GDM, xc_grid=000099000590, mem_total=3750, num_basis=291, num_pairs=41160, num_threads=1
F  -0.0000000100  1.7601192824  0.0000000000
H  0.0000003401  0.8346678220  0.0000000000
C  0.0000000500  -1.3172538863  -0.6039941363
C  0.0000000500  -1.3172538863  0.6039941363
H  -0.0000006300  -1.3229289261  1.6688100863
H  -0.0000006300  -1.3229289261  -1.6688100863