5
charge=0, multiplicity=1, basis=def2-QZVPPD, comment=['step_size = {step_size}'], AUX_BASIS_CORR=rimp2-def2-QZVPPD, SCF_ALGORITHM=GDM, xc_grid=000099000590, mem_total=3750, num_basis=271, num_pairs=33513, num_threads=1
C  -2.1000462600  -0.5755660600  0.0000000000
C  -2.7327573900  0.4521687800  0.0000000000
H  -1.5421637400  -1.4811784000  0.0000000000
H  -3.2901239200  1.3580726500  0.0000000000
Ar  1.5730729400  0.0401586700  0.0000000000