4
charge=0, multiplicity=1, basis=def2-QZVPPD, comment=['step_size = 0.001'], AUX_BASIS_CORR=rimp2-def2-QZVPPD, SCF_ALGORITHM=GDM, xc_grid=000099000590, mem_total=3750, num_basis=211, num_pairs=20337, num_threads=1
H  3.0134340700  -0.7836797267  0.0000000000
O  2.5633092251  0.0629573806  0.0000000000
H  1.6308580906  -0.1611103470  0.0000000000
Ar  -1.1430886246  -0.0013716581  0.0000000000