5
charge=0, multiplicity=1, basis=def2-QZVPPD, comment=['step_size = 0.001'], AUX_BASIS_CORR=rimp2-def2-QZVPPD, SCF_ALGORITHM=GDM, xc_grid=000099000590, mem_total=3750, num_basis=231, num_pairs=26194, num_threads=1
F  -0.0073299554  1.2994843039  0.0000000000
H  0.0407715074  0.3668376880  0.0000000000
O  0.0530488498  -1.3469198664  0.0000000000
H  -0.3722595009  -1.7433417153  0.7635749167
H  -0.3722595009  -1.7433417153  -0.7635749167