6
charge=0, multiplicity=1, basis=def2-QZVPPD, comment=['step_size = 0.003'], AUX_BASIS_CORR=rimp2-def2-QZVPPD, SCF_ALGORITHM=GDM, xc_grid=000099000590, mem_total=3750, num_basis=291, num_pairs=41160, num_threads=1
F  -0.0000000100  1.7596153300  0.0000212972
H  0.0000003400  0.8341588100  -0.0007680835
C  0.0000000498  -1.3172204611  -0.6039788854
C  0.0000000502  -1.3165176789  0.6040092946
H  -0.0000006309  -1.3241473699  1.6688130574
H  -0.0000006291  -1.3208653901  -1.6688085226