5
charge=0, multiplicity=1, basis=def2-QZVPPD, comment=['step_size = 0.001'], AUX_BASIS_CORR=rimp2-def2-QZVPPD, SCF_ALGORITHM=GDM, xc_grid=000099000590, mem_total=3750, num_basis=258, num_pairs=30908, num_threads=1
F  0.0000000000  0.0000000000  -1.9575299201
H  0.0000000000  0.0000000000  -1.0292061522
N  0.0000000000  0.0000000000  0.8200364324
C  0.0000000000  0.0000000000  1.9732813531
H  0.0000000000  0.0000000000  3.0409995584