7
charge=0, multiplicity=1, basis=def2-QZVPPD, comment=['step_size = 0.001'], AUX_BASIS_CORR=rimp2-def2-QZVPPD, SCF_ALGORITHM=GDM, xc_grid=000099000590, mem_total=3750, num_basis=294, num_pairs=41178, num_threads=1
O  -1.4769351941  -0.0578493420  0.0000000000
H  -1.8507159801  0.8240532475  0.0000000000
H  -0.5157343046  0.0767271564  0.0000000000
N  1.4611657728  0.0142413176  0.0000000000
H  1.6534004555  -0.9806510881  0.0000000000
H  1.9255670646  0.4000539423  0.8132260262
H  1.9255670646  0.4000539423  -0.8132260262