10
charge=0, multiplicity=1, basis=def2-QZVPPD, comment=['step_size = 0.01'], AUX_BASIS_CORR=rimp2-def2-QZVPPD, SCF_ALGORITHM=GDM, xc_grid=000099000590, mem_total=3750, num_basis=390, num_pairs=69840, num_threads=1
C  1.8243776863  -0.0003249949  0.0002619199
H  1.4587959143  0.8852467669  0.5165767894
H  1.4576729785  0.0016411400  -1.0244305699
H  1.4641153942  -0.8911296523  0.5113060258
H  2.9126976572  0.0029316856  -0.0023958370
C  -1.8243776863  0.0003249949  -0.0002619199
H  -2.9126976572  -0.0029316856  0.0023958370
H  -1.4576729785  -0.0016411400  1.0244305699
H  -1.4587959143  -0.8852467669  -0.5165767894
H  -1.4641153942  0.8911296523  -0.5113060258