7
charge=0, multiplicity=1, basis=def2-QZVPPD, comment=['step_size = 0.001'], AUX_BASIS_CORR=rimp2-def2-QZVPPD, SCF_ALGORITHM=GDM, xc_grid=000099000590, mem_total=3750, num_basis=294, num_pairs=41178, num_threads=1
O  -1.4769577372  -0.0578983168  0.0000000000
H  -1.8502366064  0.8242578559  0.0000000000
H  -0.5158500245  0.0773586358  0.0000000000
N  1.4612080505  0.0142596508  0.0000000000
H  1.6534988109  -0.9800262829  0.0000000000
H  1.9252212376  0.3995847643  0.8129562950
H  1.9252212376  0.3995847643  -0.8129562950