8
charge=0, multiplicity=1, basis=def2-QZVPPD, comment=['step_size = 0.001'], AUX_BASIS_CORR=rimp2-def2-QZVPPD, SCF_ALGORITHM=GDM, xc_grid=000099000590, mem_total=3750, num_basis=327, num_pairs=49748, num_threads=1
O  -1.6538507993  0.0622770344  0.0000000000
H  -2.0725215558  -0.8003328500  0.0000000000
H  -0.7133163296  -0.1276468816  0.0000000000
C  1.8240261660  -0.0038778437  0.0000000000
H  1.4088663915  0.4645160753  0.8906185424
H  1.4088663915  0.4645160753  -0.8906185424
H  2.9037947910  0.1248464300  0.0000000000
H  1.5937555058  -1.0681077223  0.0000000000