6
charge=0, multiplicity=1, basis=def2-QZVPPD, comment=['step_size = 0.003'], AUX_BASIS_CORR=rimp2-def2-QZVPPD, SCF_ALGORITHM=GDM, xc_grid=000099000590, mem_total=3750, num_basis=291, num_pairs=41160, num_threads=1
F  -0.0000000100  1.7596066952  0.0000000000
H  0.0000003402  0.8341498910  0.0000000000
C  0.0000000501  -1.3166919952  -0.6039925923
C  0.0000000501  -1.3166919952  0.6039925923
H  -0.0000006309  -1.3245289325  1.6687956754
H  -0.0000006309  -1.3245289325  -1.6687956754