6
charge=0, multiplicity=1, basis=def2-QZVPPD, comment=['step_size = 0.01'], AUX_BASIS_CORR=rimp2-def2-QZVPPD, SCF_ALGORITHM=GDM, xc_grid=000099000590, mem_total=3750, num_basis=274, num_pairs=35098, num_threads=1
C  -0.0002980459  2.6306279157  0.0000000000
H  -0.5152413849  2.2700708314  0.8884174571
H  -0.5152413849  2.2700708314  -0.8884174571
H  0.0057433307  3.7188847245  -0.0000000000
H  1.0235340833  2.2615242653  0.0000000000
Ar  0.0001198969  -1.0552526045  -0.0000000000