9
charge=0, multiplicity=1, basis=def2-QZVPPD, comment=['step_size = 0.003'], AUX_BASIS_CORR=rimp2-def2-QZVPPD, SCF_ALGORITHM=GDM, xc_grid=000099000590, mem_total=3750, num_basis=393, num_pairs=70313, num_threads=1
O  -0.7742938303  0.6529372290  0.0000000000
H  0.1403921589  0.3491425395  0.0000000000
C  -1.6137181794  -0.4879185433  0.0000000000
H  -2.6432244464  -0.1329647305  0.0000000000
H  -1.4626347484  -1.1085179251  -0.8889568806
H  -1.4626347484  -1.1085179251  0.8889568806
O  2.0131080165  -0.1807003856  0.0000000000
H  2.4907437783  0.1578395883  -0.7603823905
H  2.4907437783  0.1578395883  0.7603823905