9
charge=0, multiplicity=1, basis=def2-QZVPPD, comment=['step_size = 0.001'], AUX_BASIS_CORR=rimp2-def2-QZVPPD, SCF_ALGORITHM=GDM, xc_grid=000099000590, mem_total=3750, num_basis=393, num_pairs=70355, num_threads=1
O  -0.7744684686  0.6531063982  0.0000000000
H  0.1402553308  0.3493623988  0.0000000000
C  -1.6135658907  -0.4879983853  0.0000000000
H  -2.6440811573  -0.1329446626  0.0000000000
H  -1.4624086232  -1.1084050858  -0.8887780761
H  -1.4624086232  -1.1084050858  0.8887780761
O  2.0133203140  -0.1810094515  0.0000000000
H  2.4898089462  0.1591922497  -0.7603666872
H  2.4898089462  0.1591922497  0.7603666872