6
charge=0, multiplicity=1, basis=def2-QZVPPD, comment=['step_size = 0.003'], AUX_BASIS_CORR=rimp2-def2-QZVPPD, SCF_ALGORITHM=GDM, xc_grid=000099000590, mem_total=3750, num_basis=261, num_pairs=33434, num_threads=1
F  -0.0000728433  1.2729567300  -0.0000000000
H  0.0027975309  0.3236431206  0.0000000002
N  -0.0001410614  -1.3728612200  -0.0000000000
H  0.9407750208  -1.7476884504  0.0000000000
H  -0.4701197527  -1.7486564397  0.8146646515
H  -0.4701197527  -1.7486564398  -0.8146646515