7
charge=0, multiplicity=1, basis=def2-QZVPPD, comment=['step_size = 0.001'], AUX_BASIS_CORR=rimp2-def2-QZVPPD, SCF_ALGORITHM=GDM, xc_grid=000099000590, mem_total=3750, num_basis=294, num_pairs=41556, num_threads=1
F  -0.0000007000  -1.4638428384  0.0000000000
H  0.0000204001  -0.5439275927  0.0000000000
C  -0.0000006318  1.7666708170  0.0000000000
H  0.5162727301  1.4162333290  0.8942082326
H  0.5162727301  1.4162333290  -0.8942082326
H  -1.0325392354  1.4162202609  0.0000000000
H  -0.0000060031  2.8545405662  0.0000000000