7
charge=0, multiplicity=1, basis=def2-QZVPPD, comment=['step_size = 0.001'], AUX_BASIS_CORR=rimp2-def2-QZVPPD, SCF_ALGORITHM=GDM, xc_grid=000099000590, mem_total=3750, num_basis=294, num_pairs=41178, num_threads=1
O  -1.4769058526  -0.0578813127  0.0000000000
H  -1.8501337469  0.8240883097  0.0000000000
H  -0.5167662227  0.0772603277  0.0000000000
N  1.4611701994  0.0142695429  0.0000000000
H  1.6535725022  -0.9806334834  0.0000000000
H  1.9254422955  0.3998186366  0.8134286477
H  1.9254422955  0.3998186366  -0.8134286477