5
charge=0, multiplicity=1, basis=def2-QZVPPD, comment=['step_size = 0.003'], AUX_BASIS_CORR=rimp2-def2-QZVPPD, SCF_ALGORITHM=GDM, xc_grid=000099000590, mem_total=3750, num_basis=321, num_pairs=46297, num_threads=1
O  0.0000000000  1.1630189777  1.4284405363
C  0.0000000000  0.0000000000  1.4243941221
O  0.0000000000  -1.1630189777  1.4284405363
N  0.0000000000  0.0000000000  -1.6917957246
N  0.0000000000  0.0000000000  -2.7920981938