9
charge=0, multiplicity=1, basis=def2-QZVPPD, comment=['step_size = 0.01'], AUX_BASIS_CORR=rimp2-def2-QZVPPD, SCF_ALGORITHM=GDM, xc_grid=000099000590, mem_total=3750, num_basis=393, num_pairs=70355, num_threads=1
O  -0.7749808866  0.6540845002  0.0000000000
H  0.1401832790  0.3517268798  0.0000000000
C  -1.6121735210  -0.4884368391  0.0000000000
H  -2.6423876757  -0.1355438323  0.0000000000
H  -1.4598223985  -1.1087302859  -0.8889522644
H  -1.4598223985  -1.1087302859  0.8889522644
O  2.0123253431  -0.1813342352  0.0000000000
H  2.4900843312  0.1570607725  -0.7603753906
H  2.4900843312  0.1570607725  0.7603753906