6
charge=0, multiplicity=1, basis=def2-QZVPPD, comment=['step_size = 0.003'], AUX_BASIS_CORR=rimp2-def2-QZVPPD, SCF_ALGORITHM=GDM, xc_grid=000099000590, mem_total=3750, num_basis=261, num_pairs=33434, num_threads=1
F  0.0000000001  1.2725045696  0.0000000000
H  0.0000002091  0.3231417612  0.0000000000
N  0.0000000198  -1.3723333466  0.0000000000
H  0.9406567230  -1.7477707779  0.0000000000
H  -0.4703286404  -1.7477700114  0.8146327911
H  -0.4703286404  -1.7477700114  -0.8146327911