7
charge=0, multiplicity=1, basis=def2-QZVPPD, comment=['step_size = 0.001'], AUX_BASIS_CORR=rimp2-def2-QZVPPD, SCF_ALGORITHM=GDM, xc_grid=000099000590, mem_total=3750, num_basis=294, num_pairs=41178, num_threads=1
O  -1.4770128674  -0.0579161073  0.0000000000
H  -1.8503439931  0.8244337303  0.0000000000
H  -0.5148797773  0.0774635523  0.0000000000
N  1.4611721406  0.0142669971  0.0000000000
H  1.6535656378  -0.9805745566  0.0000000000
H  1.9254433445  0.3998086434  0.8134111123
H  1.9254433445  0.3998086434  -0.8134111123