4
charge=0, multiplicity=1, basis=def2-QZVPPD, comment=['step_size = 0.003'], AUX_BASIS_CORR=rimp2-def2-QZVPPD, SCF_ALGORITHM=GDM, xc_grid=000099000590, mem_total=3750, num_basis=198, num_pairs=19055, num_threads=1
F  1.4001309281  -0.0096126871  0.0000000000
H  0.4853275662  0.1160070944  0.0000000000
F  -1.3363784101  0.0461640916  0.0000000000
H  -1.6871195937  -0.8050337386  0.0000000000