5
charge=0, multiplicity=1, basis=def2-QZVPPD, comment=['step_size = 0.001'], AUX_BASIS_CORR=rimp2-def2-QZVPPD, SCF_ALGORITHM=GDM, xc_grid=000099000590, mem_total=3750, num_basis=241, num_pairs=27103, num_threads=1
N  0.0656858018  -2.4982732026  0.0000000000
H  -0.3761421811  -2.0827440568  0.8112477410
H  -0.3761421811  -2.0827440568  -0.8112477410
H  -0.1946582178  -3.4771611500  0.0000000000
Ar  0.0008645427  1.0681534447  0.0000000000