6
charge=0, multiplicity=1, basis=def2-QZVPPD, comment=['step_size = 0.01'], AUX_BASIS_CORR=rimp2-def2-QZVPPD, SCF_ALGORITHM=GDM, xc_grid=000099000590, mem_total=3750, num_basis=274, num_pairs=35091, num_threads=1
C  -0.0000000093  2.6327374386  0.0000000000
H  -0.5129291988  2.2693367923  0.8884161102
H  -0.5129291988  2.2693367923  -0.8884161102
H  0.0000057942  3.7209943306  0.0000000000
H  1.0258525958  2.2693286127  0.0000000000
Ar  0.0000000035  -1.0560990563  0.0000000000