7
charge=0, multiplicity=1, basis=def2-QZVPPD, comment=['step_size = {step_size}'], AUX_BASIS_CORR=rimp2-def2-QZVPPD, SCF_ALGORITHM=GDM, xc_grid=000099000590, mem_total=3750, num_basis=321, num_pairs=47459, num_threads=1
C  0.0000629100  2.2782077700  0.0000000000
H  0.0477745000  3.3653414100  0.0000000000
H  0.4963107100  1.8930153900  0.8888440300
H  -1.0411003800  1.9609922600  0.0000000000
H  0.4963107100  1.8930153900  -0.8888440300
N  -0.0000016000  -1.3040766000  0.5502491200
N  -0.0000016000  -1.3040766000  -0.5502491200