6
charge=0, multiplicity=1, basis=def2-QZVPPD, comment=['step_size = 0.001'], AUX_BASIS_CORR=rimp2-def2-QZVPPD, SCF_ALGORITHM=GDM, xc_grid=000099000590, mem_total=3750, num_basis=261, num_pairs=33434, num_threads=1
F  -0.0000000000  1.2729672002  0.0000000000
H  0.0000002100  0.3234546856  0.0000000000
N  0.0000000199  -1.3728988286  0.0000000000
H  0.9401135456  -1.7481630867  0.0000000000
H  -0.4700570524  -1.7481623169  0.8141623857
H  -0.4700570524  -1.7481623169  -0.8141623857