7
charge=0, multiplicity=1, basis=def2-QZVPPD, comment=['step_size = 0.003'], AUX_BASIS_CORR=rimp2-def2-QZVPPD, SCF_ALGORITHM=GDM, xc_grid=000099000590, mem_total=3750, num_basis=294, num_pairs=41178, num_threads=1
O  -1.4765523026  -0.0578674137  0.0000000000
H  -1.8494321578  0.8244606319  0.0000000000
H  -0.5153415774  0.0769563653  0.0000000000
N  1.4607018650  0.0141847045  0.0000000000
H  1.6540671002  -0.9804983816  0.0000000000
H  1.9245799333  0.4001959985  0.8134232677
H  1.9245799333  0.4001959985  -0.8134232677