7
charge=0, multiplicity=1, basis=def2-QZVPPD, comment=['step_size = 0.003'], AUX_BASIS_CORR=rimp2-def2-QZVPPD, SCF_ALGORITHM=GDM, xc_grid=000099000590, mem_total=3750, num_basis=294, num_pairs=41178, num_threads=1
O  -1.4772519915  -0.0578471925  0.0000000000
H  -1.8496007425  0.8247077006  0.0000000000
H  -0.5159823563  0.0764608195  0.0000000000
N  1.4613937007  0.0141310836  0.0000000000
H  1.6555205853  -0.9804036947  0.0000000000
H  1.9250038540  0.4004849452  0.8134160273
H  1.9250038540  0.4004849452  -0.8134160273