7
charge=0, multiplicity=1, basis=def2-QZVPPD, comment=['step_size = 0.001'], AUX_BASIS_CORR=rimp2-def2-QZVPPD, SCF_ALGORITHM=GDM, xc_grid=000099000590, mem_total=3750, num_basis=321, num_pairs=47459, num_threads=1
C  -0.0000079710  2.2781168322  0.0000000000
H  0.0480927255  3.3652592333  0.0000000000
H  0.4966528013  1.8934540041  0.8888427658
H  -1.0412586697  1.9612787068  0.0000000000
H  0.4966528013  1.8934540041  -0.8888427658
N  -0.0000016054  -1.3040765538  0.5502490491
N  -0.0000016054  -1.3040765538  -0.5502490491