7
charge=0, multiplicity=1, basis=def2-QZVPPD, comment=['step_size = 0.001'], AUX_BASIS_CORR=rimp2-def2-QZVPPD, SCF_ALGORITHM=GDM, xc_grid=000099000590, mem_total=3750, num_basis=294, num_pairs=41556, num_threads=1
F  -0.0000013118  -1.4638424099  0.0000000000
H  0.0000541128  -0.5439340909  0.0000000000
C  -0.0000016996  1.7666638201  0.0000000000
H  0.5163493196  1.4161571947  0.8934955208
H  0.5163493196  1.4161571947  -0.8934955208
H  -1.0322083500  1.4168678316  -0.0000000000
H  -0.0004995334  2.8541269971  0.0000000000