10
charge=0, multiplicity=1, basis=def2-QZVPPD, comment=['step_size = 0.001'], AUX_BASIS_CORR=rimp2-def2-QZVPPD, SCF_ALGORITHM=GDM, xc_grid=000099000590, mem_total=3750, num_basis=390, num_pairs=69840, num_threads=1
C  1.8244394263  0.0000000015  -0.0000000169
H  1.4601570700  0.8868191410  0.5155448068
H  1.4601114743  0.0030559828  -1.0257643193
H  1.4601570918  -0.8898752520  0.5102516455
H  2.9121184201  0.0000001102  -0.0000319674
C  -1.8244394263  -0.0000000015  0.0000000169
H  -2.9121184201  -0.0000001102  0.0000319674
H  -1.4601114743  -0.0030559828  1.0257643193
H  -1.4601570700  -0.8868191410  -0.5155448068
H  -1.4601570918  0.8898752520  -0.5102516455