4
charge=0, multiplicity=1, basis=def2-QZVPPD, comment=['step_size = 0.003'], AUX_BASIS_CORR=rimp2-def2-QZVPPD, SCF_ALGORITHM=GDM, xc_grid=000099000590, mem_total=3750, num_basis=228, num_pairs=24519, num_threads=1
C  0.0000000000  0.0000000000  2.0766197052
O  0.0000000000  0.0000000000  0.9433492955
H  0.0000000000  0.0000000000  -1.1266958643
F  0.0000000000  0.0000000000  -2.0461043553