7
charge=0, multiplicity=1, basis=def2-QZVPPD, comment=['step_size = 0.001'], AUX_BASIS_CORR=rimp2-def2-QZVPPD, SCF_ALGORITHM=GDM, xc_grid=000099000590, mem_total=3750, num_basis=321, num_pairs=47459, num_threads=1
C  0.0000628859  2.2782078871  0.0000000000
H  0.0477744768  3.3653412388  0.0000000000
H  0.4963108911  1.8930150259  0.8888437653
H  -1.0411004079  1.9609919730  0.0000000000
H  0.4963108911  1.8930150259  -0.8888437653
N  -0.0000016009  -1.3040766075  0.5500601586
N  -0.0000016009  -1.3040766075  -0.5500601586