10
charge=0, multiplicity=1, basis=def2-QZVPPD, comment=['step_size = 0.001'], AUX_BASIS_CORR=rimp2-def2-QZVPPD, SCF_ALGORITHM=GDM, xc_grid=000099000590, mem_total=3750, num_basis=390, num_pairs=69840, num_threads=1
C  1.8243775452  -0.0000610950  -0.0000100801
H  1.4600340358  0.8870693785  0.5156959391
H  1.4601942140  0.0030415870  -1.0254936390
H  1.4603555499  -0.8893700072  0.5099519142
H  2.9126975379  -0.0000137520  -0.0000342681
C  -1.8243775452  0.0000610950  0.0000100801
H  -2.9126975379  0.0000137520  0.0000342681
H  -1.4601942140  -0.0030415870  1.0254936390
H  -1.4600340358  -0.8870693785  -0.5156959391
H  -1.4603555499  0.8893700072  -0.5099519142