7
charge=0, multiplicity=1, basis=def2-QZVPPD, comment=['step_size = 0.01'], AUX_BASIS_CORR=rimp2-def2-QZVPPD, SCF_ALGORITHM=GDM, xc_grid=000099000590, mem_total=3750, num_basis=321, num_pairs=47462, num_threads=1
C  0.0000629100  2.2782077700  -0.0002903734
H  0.0477745000  3.3653414100  0.0057044563
H  0.4966693649  1.8881144819  0.8862270066
H  -1.0411003800  1.9609922600  -0.0016200347
H  0.4959520551  1.8979162981  -0.8914610534
N  -0.0000851593  -1.3040154882  0.5504149087
N  0.0000819593  -1.3041377118  -0.5500833313