7
charge=0, multiplicity=1, basis=def2-QZVPPD, comment=['step_size = 0.001'], AUX_BASIS_CORR=rimp2-def2-QZVPPD, SCF_ALGORITHM=GDM, xc_grid=000099000590, mem_total=3750, num_basis=294, num_pairs=41556, num_threads=1
F  -0.0000007012  -1.4638938800  0.0000000000
H  0.0000204223  -0.5429634173  0.0000000000
C  -0.0000006300  1.7666638726  0.0000000000
H  0.5160219345  1.4163974844  0.8937738430
H  0.5160219345  1.4163974844  -0.8937738430
H  -1.0320376693  1.4163844145  0.0000000000
H  -0.0000060002  2.8541287930  0.0000000000