4
charge=0, multiplicity=1, basis=def2-QZVPPD, comment=['step_size = 0.01'], AUX_BASIS_CORR=rimp2-def2-QZVPPD, SCF_ALGORITHM=GDM, xc_grid=000099000590, mem_total=3750, num_basis=252, num_pairs=27854, num_threads=1
N  -1.6187218514  0.4776210078  0.0000000000
N  -2.3695922313  -0.3268846954  0.0000000000
N  2.3695922313  0.3268846954  0.0000000000
N  1.6187218514  -0.4776210078  0.0000000000