6
charge=0, multiplicity=1, basis=def2-QZVPPD, comment=['step_size = 0.001'], AUX_BASIS_CORR=rimp2-def2-QZVPPD, SCF_ALGORITHM=GDM, xc_grid=000099000590, mem_total=3750, num_basis=264, num_pairs=33337, num_threads=1
H  0.8159343859  1.8640865568  0.0000000000
O  -0.0671269459  1.4900345257  0.0000000000
H  0.0712816745  0.5352119587  0.0000000000
H  -0.4126409655  -1.7608657331  0.7601642606
O  0.0632245354  -1.4193110431  0.0000000000
H  -0.4126409655  -1.7608657331  -0.7601642606