3
charge=0, multiplicity=1, basis=def2-QZVPPD, comment=['step_size = 0.001'], AUX_BASIS_CORR=rimp2-def2-QZVPPD, SCF_ALGORITHM=GDM, xc_grid=000099000590, mem_total=3750, num_basis=208, num_pairs=20016, num_threads=1
C  -2.1279613479  0.6512718330  0.0000000000
O  -2.2235141135  -0.4761589216  0.0000000000
Ar  1.5289491975  -0.0049832085  0.0000000000