6
charge=0, multiplicity=1, basis=def2-QZVPPD, comment=['step_size = 0.01'], AUX_BASIS_CORR=rimp2-def2-QZVPPD, SCF_ALGORITHM=GDM, xc_grid=000099000590, mem_total=3750, num_basis=274, num_pairs=35091, num_threads=1
C  0.0000000093  2.6285185214  0.0000000000
H  -0.5129277412  2.2651125477  0.8884138298
H  -0.5129277412  2.2651125477  -0.8884138298
H  0.0000054458  3.7167753094  0.0000000000
H  1.0258501042  2.2651048873  0.0000000000
Ar  -0.0000000035  -1.0544062037  0.0000000000