8
charge=0, multiplicity=1, basis=def2-QZVPPD, comment=['step_size = 0.001'], AUX_BASIS_CORR=rimp2-def2-QZVPPD, SCF_ALGORITHM=GDM, xc_grid=000099000590, mem_total=3750, num_basis=324, num_pairs=48371, num_threads=1
N  -0.0593016132  1.6407100158  0.0000000000
H  0.3233264018  2.1124520372  -0.8098679430
H  0.3233264018  2.1124520372  0.8098679430
H  0.3190972013  0.6970035203  0.0000000000
N  0.0344964393  -1.5879317013  0.0000000000
H  -0.9352971574  -1.2927426953  0.0000000000
H  0.1570994668  -2.1812426572  -0.8117348881
H  0.1570994668  -2.1812426572  0.8117348881