6
charge=0, multiplicity=1, basis=def2-QZVPPD, comment=['step_size = 0.001'], AUX_BASIS_CORR=rimp2-def2-QZVPPD, SCF_ALGORITHM=GDM, xc_grid=000099000590, mem_total=3750, num_basis=274, num_pairs=35091, num_threads=1
C  0.0000000007  2.6305126699  0.0000000000
H  -0.5130290623  2.2677096246  0.8885891946
H  -0.5130290623  2.2677096246  -0.8885891946
H  0.0000056134  3.7188014032  0.0000000000
H  1.0260525331  2.2677016998  0.0000000000
Ar  -0.0000000000  -1.0552525913  0.0000000000