4
charge=0, multiplicity=1, basis=def2-QZVPPD, comment=['step_size = 0.003'], AUX_BASIS_CORR=rimp2-def2-QZVPPD, SCF_ALGORITHM=GDM, xc_grid=000099000590, mem_total=3750, num_basis=274, num_pairs=35215, num_threads=1
O  0.0000000000  -1.1631130215  1.6279080783
C  0.0000000000  0.0000000000  1.6289603949
O  0.0000000000  1.1631130215  1.6279080783
Ar  0.0000000000  0.0000000000  -1.7922861340