9
charge=0, multiplicity=1, basis=def2-QZVPPD, comment=['step_size = 0.001'], AUX_BASIS_CORR=rimp2-def2-QZVPPD, SCF_ALGORITHM=GDM, xc_grid=000099000590, mem_total=3750, num_basis=393, num_pairs=70355, num_threads=1
O  -0.7744543342  0.6530864224  0.0000000000
H  0.1403137048  0.3495350992  0.0000000000
C  -1.6136249347  -0.4879971354  0.0000000000
H  -2.6433349175  -0.1335690140  0.0000000000
H  -1.4625685824  -1.1080237119  -0.8893309045
H  -1.4625685824  -1.1080237119  0.8893309045
O  2.0133194710  -0.1810108290  0.0000000000
H  2.4898126395  0.1591987058  -0.7603611223
H  2.4898126395  0.1591987058  0.7603611223