7
charge=0, multiplicity=1, basis=def2-QZVPPD, comment=['step_size = 0.001'], AUX_BASIS_CORR=rimp2-def2-QZVPPD, SCF_ALGORITHM=GDM, xc_grid=000099000590, mem_total=3750, num_basis=337, num_pairs=52652, num_threads=1
C  0.0000000000  -0.6674304022  2.2285421482
C  0.0000000000  0.6672995178  2.2285423118
H  0.0000000000  -1.2313183600  3.1527780468
H  0.0000000000  -1.2319086651  1.3047126008
H  0.0000000000  1.2320979400  3.1522468332
H  0.0000000000  1.2326880749  1.3052446592
Ar  0.0000000000  -0.0000000144  -1.5632139500