8
charge=0, multiplicity=1, basis=def2-QZVPPD, comment=['step_size = 0.001'], AUX_BASIS_CORR=rimp2-def2-QZVPPD, SCF_ALGORITHM=GDM, xc_grid=000099000590, mem_total=3750, num_basis=327, num_pairs=49748, num_threads=1
O  -1.6538456689  0.0622669182  0.0000000000
H  -2.0726272622  -0.8002810776  0.0000000000
H  -0.7132926003  -0.1275483421  0.0000000000
C  1.8240296577  -0.0038753375  0.0000000000
H  1.4089481663  0.4644404785  0.8913166315
H  1.4089481663  0.4644404785  -0.8913166315
H  2.9041834293  0.1253849981  0.0000000000
H  1.5931622969  -1.0685146980  0.0000000000