6
charge=0, multiplicity=1, basis=def2-QZVPPD, comment=['step_size = 0.003'], AUX_BASIS_CORR=rimp2-def2-QZVPPD, SCF_ALGORITHM=GDM, xc_grid=000099000590, mem_total=3750, num_basis=390, num_pairs=68687, num_threads=1
C  1.7284094913  0.2782111804  0.0000000000
O  0.9772072075  1.1683162370  0.0000000000
O  2.4820003627  -0.6057289997  0.0000000000
C  -1.7284094913  -0.2782111804  0.0000000000
O  -0.9772072075  -1.1683162370  0.0000000000
O  -2.4820003627  0.6057289997  0.0000000000