7
charge=0, multiplicity=1, basis=def2-QZVPPD, comment=['step_size = 0.003'], AUX_BASIS_CORR=rimp2-def2-QZVPPD, SCF_ALGORITHM=GDM, xc_grid=000099000590, mem_total=3750, num_basis=294, num_pairs=41556, num_threads=1
F  0.0000850632  -1.4638423479  0.0000000000
H  0.0000130509  -0.5439340256  0.0000000000
C  -0.0001101478  1.7666637423  0.0000000000
H  0.5153318230  1.4155622384  0.8937938141
H  0.5153318230  1.4155622384  -0.8937938141
H  -1.0327092057  1.4180575018  0.0000000000
H  0.0017404043  2.8541269320  0.0000000000