9
charge=0, multiplicity=1, basis=def2-QZVPPD, comment=['step_size = 0.001'], AUX_BASIS_CORR=rimp2-def2-QZVPPD, SCF_ALGORITHM=GDM, xc_grid=000099000590, mem_total=3750, num_basis=393, num_pairs=70355, num_threads=1
O  -0.7744308688  0.6530485362  0.0000000000
H  0.1405335368  0.3501129162  0.0000000000
C  -1.6137279229  -0.4879098920  0.0000000000
H  -2.6434072628  -0.1334619024  0.0000000000
H  -1.4622112262  -1.1085695705  -0.8888383766
H  -1.4622112262  -1.1085695705  0.8888383766
O  2.0133193575  -0.1810144883  0.0000000000
H  2.4898093659  0.1592123829  -0.7603577137
H  2.4898093659  0.1592123829  0.7603577137