7
charge=0, multiplicity=1, basis=def2-QZVPPD, comment=['step_size = 0.001'], AUX_BASIS_CORR=rimp2-def2-QZVPPD, SCF_ALGORITHM=GDM, xc_grid=000099000590, mem_total=3750, num_basis=294, num_pairs=41178, num_threads=1
O  -1.4769593600  -0.0578987100  -0.0000002378
H  -1.8502388700  0.8242610200  0.0000018839
H  -0.5158230000  0.0773619400  0.0000084736
N  1.4611711700  0.0142682700  0.0000639798
H  1.6535690700  -0.9806040200  -0.0007357722
H  1.9253028926  0.4002271621  0.8133399957
H  1.9255827474  0.3994001179  -0.8134997643