7
charge=0, multiplicity=1, basis=def2-QZVPPD, comment=['step_size = 0.003'], AUX_BASIS_CORR=rimp2-def2-QZVPPD, SCF_ALGORITHM=GDM, xc_grid=000099000590, mem_total=3750, num_basis=294, num_pairs=41178, num_threads=1
O  -1.4769593600  -0.0578987100  0.0000428097
H  -1.8502388700  0.8242610200  0.0009418506
H  -0.5158230000  0.0773619400  -0.0008849844
N  1.4611711700  0.0142682700  -0.0001851008
H  1.6535690700  -0.9806040200  0.0006175131
H  1.9237947005  0.4001290419  0.8140289072
H  1.9270909395  0.3994982381  -0.8128108528