6
charge=0, multiplicity=1, basis=def2-QZVPPD, comment=['step_size = 0.01'], AUX_BASIS_CORR=rimp2-def2-QZVPPD, SCF_ALGORITHM=GDM, xc_grid=000099000590, mem_total=3750, num_basis=274, num_pairs=35091, num_threads=1
C  0.0002980459  2.6306280443  -0.0000000000
H  -0.5106155551  2.2643785086  0.8884124829
H  -0.5106155551  2.2643785086  -0.8884124829
H  -0.0057320907  3.7188849155  0.0000000000
H  1.0281686167  2.2729092347  -0.0000000000
Ar  -0.0001198969  -1.0552526555  0.0000000000