7
charge=0, multiplicity=1, basis=def2-QZVPPD, comment=['step_size = 0.001'], AUX_BASIS_CORR=rimp2-def2-QZVPPD, SCF_ALGORITHM=GDM, xc_grid=000099000590, mem_total=3750, num_basis=321, num_pairs=47459, num_threads=1
C  0.0000629169  2.2782070591  0.0000000000
H  0.0477528791  3.3648509705  0.0000000000
H  0.4960823004  1.8931922156  0.8884351361
H  -1.0406220295  1.9611376806  0.0000000000
H  0.4960823004  1.8931922156  -0.8884351361
N  -0.0000015997  -1.3040766061  0.5502491264
N  -0.0000015997  -1.3040766061  -0.5502491264