5
charge=0, multiplicity=1, basis=def2-QZVPPD, comment=['step_size = 0.001'], AUX_BASIS_CORR=rimp2-def2-QZVPPD, SCF_ALGORITHM=GDM, xc_grid=000099000590, mem_total=3750, num_basis=321, num_pairs=46297, num_threads=1
O  0.0000000000  1.1630216642  1.4281639874
C  0.0000000000  0.0000000000  1.4251328716
O  0.0000000000  -1.1630216642  1.4281639874
N  0.0000000000  0.0000000000  -1.6916070192
N  0.0000000000  0.0000000000  -2.7922882020