8
charge=0, multiplicity=1, basis=def2-QZVPPD, comment=['step_size = 0.001'], AUX_BASIS_CORR=rimp2-def2-QZVPPD, SCF_ALGORITHM=GDM, xc_grid=000099000590, mem_total=3750, num_basis=384, num_pairs=64034, num_threads=1
H  0.0000000000  1.6683408252  2.1852637884
C  0.0000000000  0.6035080289  2.1826921578
C  0.0000000000  -0.6035080289  2.1826921578
H  0.0000000000  -1.6683408252  2.1852637884
H  0.0000000000  0.0000000000  -0.5132287221
C  0.0000000000  0.0000000000  -1.5791985407
C  0.0000000000  0.0000000000  -2.7867733257
H  0.0000000000  0.0000000000  -3.8503028676