8
charge=0, multiplicity=1, basis=def2-QZVPPD, comment=['step_size = 0.001'], AUX_BASIS_CORR=rimp2-def2-QZVPPD, SCF_ALGORITHM=GDM, xc_grid=000099000590, mem_total=3750, num_basis=384, num_pairs=64034, num_threads=1
H  0.0000000000  1.6677137612  2.1852620936
C  0.0000000000  0.6035950322  2.1826922496
C  0.0000000000  -0.6035950322  2.1826922496
H  0.0000000000  -1.6677137612  2.1852620936
H  0.0000000000  0.0000000000  -0.5124165512
C  0.0000000000  0.0000000000  -1.5792755423
C  0.0000000000  0.0000000000  -2.7868083148
H  0.0000000000  0.0000000000  -3.8497803823