5
charge=0, multiplicity=1, basis=def2-QZVPPD, comment=['step_size = 0.003'], AUX_BASIS_CORR=rimp2-def2-QZVPPD, SCF_ALGORITHM=GDM, xc_grid=000099000590, mem_total=3750, num_basis=321, num_pairs=46297, num_threads=1
O  0.0000000000  1.1630243423  1.4278874237
C  0.0000000000  0.0000000000  1.4258720779
O  0.0000000000  -1.1630243423  1.4278874237
N  0.0000000000  0.0000000000  -1.6917964154
N  0.0000000000  0.0000000000  -2.7921004662