5
charge=0, multiplicity=1, basis=def2-QZVPPD, comment=['step_size = 0.003'], AUX_BASIS_CORR=rimp2-def2-QZVPPD, SCF_ALGORITHM=GDM, xc_grid=000099000590, mem_total=3750, num_basis=271, num_pairs=33513, num_threads=1
C  -2.0997215915  -0.5753661782  0.0000000000
C  -2.7330837473  0.4519678528  0.0000000000
H  -1.5435604376  -1.4820391093  0.0000000000
H  -3.2887092150  1.3589429695  0.0000000000
Ar  1.5730729929  0.0401587415  0.0000000000