4
charge=0, multiplicity=1, basis=def2-QZVPPD, comment=['step_size = 0.001'], AUX_BASIS_CORR=rimp2-def2-QZVPPD, SCF_ALGORITHM=GDM, xc_grid=000099000590, mem_total=3750, num_basis=198, num_pairs=19055, num_threads=1
F  1.4001092000  -0.0096813193  0.0000000000
H  0.4855085367  0.1186246805  0.0000000000
F  -1.3363211812  0.0460230770  0.0000000000
H  -1.6879697851  -0.8036992955  0.0000000000