6
charge=0, multiplicity=1, basis=def2-QZVPPD, comment=['step_size = 0.001'], AUX_BASIS_CORR=rimp2-def2-QZVPPD, SCF_ALGORITHM=GDM, xc_grid=000099000590, mem_total=3750, num_basis=274, num_pairs=35091, num_threads=1
C  0.0000000000  2.6306279800  -0.0001152545
H  -0.5126821963  2.2673982366  0.8885449446
H  -0.5131747437  2.2670511034  -0.8882849954
H  0.0000056200  3.7188848200  0.0005558810
H  1.0258513500  2.2672167500  0.0005565317
Ar  0.0000000000  -1.0552526300  -0.0000000012