8
charge=0, multiplicity=1, basis=def2-QZVPPD, comment=['step_size = 0.001'], AUX_BASIS_CORR=rimp2-def2-QZVPPD, SCF_ALGORITHM=GDM, xc_grid=000099000590, mem_total=3750, num_basis=327, num_pairs=49748, num_threads=1
O  -1.6538564911  0.0622873218  0.0000000000
H  -2.0724159178  -0.8003852024  0.0000000000
H  -0.7133327997  -0.1277477579  0.0000000000
C  1.8240305823  -0.0038767825  0.0000000000
H  1.4084015937  0.4650296215  0.8907507685
H  1.4084015937  0.4650296215  -0.8907507685
H  2.9042995107  0.1244163219  0.0000000000
H  1.5941289631  -1.0687273820  0.0000000000