8
charge=0, multiplicity=1, basis=def2-QZVPPD, comment=['step_size = 0.003'], AUX_BASIS_CORR=rimp2-def2-QZVPPD, SCF_ALGORITHM=GDM, xc_grid=000099000590, mem_total=3750, num_basis=384, num_pairs=64034, num_threads=1
H  0.0000000000  1.6677060354  2.1846032022
C  0.0000000000  0.6035921142  2.1828354242
C  0.0000000000  -0.6036001458  2.1825491158
H  0.0000000000  -1.6677093846  2.1859210978
H  0.0000000000  0.0011913068  -0.5131815300
C  0.0000000000  -0.0003019246  -1.5792050800
C  0.0000000000  0.0003665982  -2.7867665500
H  0.0000000000  -0.0018623808  -3.8503522700