10
charge=0, multiplicity=1, basis=def2-QZVPPD, comment=['step_size = 0.01'], AUX_BASIS_CORR=rimp2-def2-QZVPPD, SCF_ALGORITHM=GDM, xc_grid=000099000590, mem_total=3750, num_basis=390, num_pairs=69840, num_threads=1
C  1.8243777261  0.0002628015  0.0003257906
H  1.4639026146  0.8878087290  0.5168584467
H  1.4570937909  0.0041826561  -1.0241548445
H  1.4595880918  -0.8885696565  0.5115724552
H  2.9126976819  -0.0023623849  -0.0029622010
C  -1.8243777261  -0.0002628015  -0.0003257906
H  -2.9126976819  0.0023623849  0.0029622010
H  -1.4570937909  -0.0041826561  1.0241548445
H  -1.4639026146  -0.8878087290  -0.5168584467
H  -1.4595880918  0.8885696565  -0.5115724552