7
charge=0, multiplicity=1, basis=def2-QZVPPD, comment=['step_size = 0.01'], AUX_BASIS_CORR=rimp2-def2-QZVPPD, SCF_ALGORITHM=GDM, xc_grid=000099000590, mem_total=3750, num_basis=337, num_pairs=52652, num_threads=1
C  0.0000000000  -0.6673650328  2.2270929593
C  0.0000000000  0.6673650328  2.2270929593
H  0.0000000000  -1.2316983044  3.1510694180
H  0.0000000000  -1.2323118594  1.3035408074
H  0.0000000000  1.2316983044  3.1510694180
H  0.0000000000  1.2323118594  1.3035408074
Ar  0.0000000000  0.0000000000  -1.5621982636