7
charge=0, multiplicity=1, basis=def2-QZVPPD, comment=['step_size = 0.003'], AUX_BASIS_CORR=rimp2-def2-QZVPPD, SCF_ALGORITHM=GDM, xc_grid=000099000590, mem_total=3750, num_basis=337, num_pairs=52652, num_threads=1
C  0.0000000000  -0.6673645402  2.2286569135
C  0.0000000000  0.6673645402  2.2286569135
H  0.0000000000  -1.2330030279  3.1518209032
H  0.0000000000  -1.2310038611  1.3042874307
H  0.0000000000  1.2330030279  3.1518209032
H  0.0000000000  1.2310038611  1.3042874307
Ar  0.0000000000  0.0000000000  -1.5632130815