6
charge=0, multiplicity=1, basis=def2-QZVPPD, comment=['step_size = 0.003'], AUX_BASIS_CORR=rimp2-def2-QZVPPD, SCF_ALGORITHM=GDM, xc_grid=000099000590, mem_total=3750, num_basis=264, num_pairs=33337, num_threads=1
H  0.8155264624  1.8631283769  0.0000000000
O  -0.0670544544  1.4904211096  0.0000000000
H  0.0704363626  0.5351094763  0.0000000000
H  -0.4118191660  -1.7622478864  0.7601538780
O  0.0631274474  -1.4194566192  0.0000000000
H  -0.4118191660  -1.7622478864  -0.7601538780