6
charge=0, multiplicity=1, basis=def2-QZVPPD, comment=['step_size = 0.001'], AUX_BASIS_CORR=rimp2-def2-QZVPPD, SCF_ALGORITHM=GDM, xc_grid=000099000590, mem_total=3750, num_basis=274, num_pairs=35091, num_threads=1
C  -0.0000001122  2.6306279800  0.0000000000
H  -0.5132602172  2.2669898724  0.8881275878
H  -0.5132602172  2.2669898724  -0.8881275878
H  0.0005042207  3.7188848174  0.0000000000
H  1.0260173671  2.2676863477  -0.0000000000
Ar  0.0000000054  -1.0552526300  0.0000000000