5
charge=0, multiplicity=1, basis=def2-QZVPPD, comment=['step_size = 0.001'], AUX_BASIS_CORR=rimp2-def2-QZVPPD, SCF_ALGORITHM=GDM, xc_grid=000099000590, mem_total=3750, num_basis=241, num_pairs=27103, num_threads=1
N  0.0655804900  -2.4982868400  -0.0000757286
H  -0.3759559201  -2.0822965631  0.8119513234
H  -0.3753786599  -2.0828755169  -0.8108763166
H  -0.1941450500  -3.4772879100  -0.0000229302
Ar  0.0008645500  1.0681534500  0.0000000031