8
charge=0, multiplicity=1, basis=def2-QZVPPD, comment=['step_size = {step_size}'], AUX_BASIS_CORR=rimp2-def2-QZVPPD, SCF_ALGORITHM=GDM, xc_grid=000099000590, mem_total=3750, num_basis=327, num_pairs=49748, num_threads=1
O  -1.6538510800  0.0622771200  0.0000000000
H  -2.0725215900  -0.8003331400  0.0000000000
H  -0.7133127000  -0.1276480500  0.0000000000
C  1.8240301200  -0.0038760600  0.0000000000
H  1.4086748800  0.4647350500  0.8910337000
H  1.4086748800  0.4647350500  -0.8910337000
H  2.9042414700  0.1249006600  0.0000000000
H  1.5936456300  -1.0686210400  0.0000000000