7
charge=0, multiplicity=1, basis=def2-QZVPPD, comment=['step_size = 0.001'], AUX_BASIS_CORR=rimp2-def2-QZVPPD, SCF_ALGORITHM=GDM, xc_grid=000099000590, mem_total=3750, num_basis=337, num_pairs=52652, num_threads=1
C  0.0000000000  -0.6672646725  2.2285421617
C  0.0000000000  0.6672646725  2.2285421617
H  0.0000000000  -1.2313059581  3.1526752147
H  0.0000000000  -1.2318964217  1.3048156964
H  0.0000000000  1.2313059581  3.1526752147
H  0.0000000000  1.2318964217  1.3048156964
Ar  0.0000000000  0.0000000000  -1.5632139009