10
charge=0, multiplicity=1, basis=def2-QZVPPD, comment=['step_size = 0.001'], AUX_BASIS_CORR=rimp2-def2-QZVPPD, SCF_ALGORITHM=GDM, xc_grid=000099000590, mem_total=3750, num_basis=390, num_pairs=69840, num_threads=1
C  1.8243775403  -0.0000000908  0.0000004091
H  1.4601027491  0.8864572257  0.5157175021
H  1.4604908918  0.0029874884  -1.0256904191
H  1.4599901761  -0.8895140024  0.5103475903
H  2.9126975799  0.0000703699  -0.0003795804
C  -1.8243775397  -0.0000000908  0.0000004891
H  -2.9126976001  0.0000701499  -0.0003156004
H  -1.4598376682  -0.0031233516  1.0254605609
H  -1.4603167509  -0.8868551143  -0.5151826179
H  -1.4604293839  0.8899093976  -0.5099681297