5
charge=0, multiplicity=1, basis=def2-QZVPPD, comment=['step_size = 0.001'], AUX_BASIS_CORR=rimp2-def2-QZVPPD, SCF_ALGORITHM=GDM, xc_grid=000099000590, mem_total=3750, num_basis=241, num_pairs=27103, num_threads=1
N  0.0655903236  -2.4983619329  0.0000000000
H  -0.3758311098  -2.0824417262  0.8117383769
H  -0.3758311098  -2.0824417262  -0.8117383769
H  -0.1939539899  -3.4765329017  0.0000000000
Ar  0.0008645487  1.0681534432  0.0000000000