4
charge=0, multiplicity=1, basis=def2-QZVPPD, comment=['step_size = 0.01'], AUX_BASIS_CORR=rimp2-def2-QZVPPD, SCF_ALGORITHM=GDM, xc_grid=000099000590, mem_total=3750, num_basis=211, num_pairs=20362, num_threads=1
H  3.0074792995  -0.7862272769  0.0000000000
O  2.5621652328  0.0630170520  0.0000000000
H  1.6287359127  -0.1571804520  0.0000000000
Ar  -1.1424270471  -0.0014304033  0.0000000000