7
charge=0, multiplicity=1, basis=def2-QZVPPD, comment=['step_size = 0.001'], AUX_BASIS_CORR=rimp2-def2-QZVPPD, SCF_ALGORITHM=GDM, xc_grid=000099000590, mem_total=3750, num_basis=321, num_pairs=47459, num_threads=1
C  0.0000651244  2.2782953673  0.0000000000
H  0.0477379648  3.3645166036  0.0000000000
H  0.4964404525  1.8929346071  0.8890754287
H  -1.0413496957  1.9609356441  0.0000000000
H  0.4964404525  1.8929346071  -0.8890754287
N  -0.0000016000  -1.3040766006  0.5502491714
N  -0.0000016000  -1.3040766006  -0.5502491714