5
charge=0, multiplicity=1, basis=def2-QZVPPD, comment=['step_size = 0.003'], AUX_BASIS_CORR=rimp2-def2-QZVPPD, SCF_ALGORITHM=GDM, xc_grid=000099000590, mem_total=3750, num_basis=271, num_pairs=33513, num_threads=1
C  -2.1001926530  -0.5756561883  0.0000000000
C  -2.7329012319  0.4520803664  0.0000000000
H  -1.5404276834  -1.4801087705  0.0000000000
H  -3.2884034234  1.3591312742  0.0000000000
Ar  1.5730729205  0.0401586097  0.0000000000