6
charge=0, multiplicity=1, basis=def2-QZVPPD, comment=['step_size = 0.001'], AUX_BASIS_CORR=rimp2-def2-QZVPPD, SCF_ALGORITHM=GDM, xc_grid=000099000590, mem_total=3750, num_basis=291, num_pairs=41160, num_threads=1
F  -0.0000000100  1.7596153300  -0.0000000065
H  0.0000003400  0.8341588100  -0.0000003989
C  0.0000000500  -1.3168694475  -0.6040508865
C  0.0000000500  -1.3168686925  0.6039372935
H  -0.0000006304  -1.3225106562  1.6694873166
H  -0.0000006296  -1.3225021038  -1.6681342634