5
charge=0, multiplicity=1, basis=def2-QZVPPD, comment=['step_size = 0.003'], AUX_BASIS_CORR=rimp2-def2-QZVPPD, SCF_ALGORITHM=GDM, xc_grid=000099000590, mem_total=3750, num_basis=231, num_pairs=26194, num_threads=1
F  -0.0074187826  1.2994695488  0.0000000000
H  0.0436564105  0.3670019390  0.0000000000
O  0.0529847072  -1.3468276975  0.0000000000
H  -0.3723557223  -1.7440161617  0.7631931597
H  -0.3723557223  -1.7440161617  -0.7631931597