7
charge=0, multiplicity=1, basis=def2-QZVPPD, comment=['step_size = 0.001'], AUX_BASIS_CORR=rimp2-def2-QZVPPD, SCF_ALGORITHM=GDM, xc_grid=000099000590, mem_total=3750, num_basis=294, num_pairs=41178, num_threads=1
O  -1.4769446474  -0.0578689165  0.0000000000
H  -1.8505322751  0.8241340340  0.0000000000
H  -0.5157692804  0.0769903869  0.0000000000
N  1.4611827244  0.0143252104  0.0000000000
H  1.6537857516  -0.9805299291  0.0000000000
H  1.9252573018  0.3993938670  0.8137446620
H  1.9252573018  0.3993938670  -0.8137446620