7
charge=0, multiplicity=1, basis=def2-QZVPPD, comment=['step_size = 0.001'], AUX_BASIS_CORR=rimp2-def2-QZVPPD, SCF_ALGORITHM=GDM, xc_grid=000099000590, mem_total=3750, num_basis=294, num_pairs=41178, num_threads=1
O  -1.4769740726  -0.0579285035  0.0000000000
H  -1.8499454649  0.8243880060  0.0000000000
H  -0.5158767196  0.0777334931  0.0000000000
N  1.4611596156  0.0142113296  0.0000000000
H  1.6533523884  -0.9806781109  0.0000000000
H  1.9256283382  0.4002334130  0.8130950980
H  1.9256283382  0.4002334130  -0.8130950980