8
charge=0, multiplicity=1, basis=def2-QZVPPD, comment=['step_size = 0.001'], AUX_BASIS_CORR=rimp2-def2-QZVPPD, SCF_ALGORITHM=GDM, xc_grid=000099000590, mem_total=3750, num_basis=384, num_pairs=64034, num_threads=1
H  0.0000000000  1.6676407393  2.1852619838
C  0.0000000000  0.6035559089  2.1826923205
C  0.0000000000  -0.6035559089  2.1826923205
H  0.0000000000  -1.6676407393  2.1852619838
H  0.0000000000  0.0000000000  -0.5134829948
C  0.0000000000  0.0000000000  -1.5793842627
C  0.0000000000  0.0000000000  -2.7865869894
H  0.0000000000  0.0000000000  -3.8500561716