6
charge=0, multiplicity=1, basis=def2-QZVPPD, comment=['step_size = 0.01'], AUX_BASIS_CORR=rimp2-def2-QZVPPD, SCF_ALGORITHM=GDM, xc_grid=000099000590, mem_total=3750, num_basis=390, num_pairs=68687, num_threads=1
C  1.7285211997  0.2783768804  0.0000000000
O  0.9784982767  1.1694769244  0.0000000000
O  2.4809347568  -0.6065671471  0.0000000000
C  -1.7285298203  -0.2783774596  0.0000000000
O  -0.9765877233  -1.1678598956  0.0000000000
O  -2.4828388432  0.6049505529  0.0000000000