6
charge=0, multiplicity=1, basis=def2-QZVPPD, comment=['step_size = 0.003'], AUX_BASIS_CORR=rimp2-def2-QZVPPD, SCF_ALGORITHM=GDM, xc_grid=000099000590, mem_total=3750, num_basis=390, num_pairs=68687, num_threads=1
C  1.7289250708  0.2787133981  0.0000000000
O  0.9773927209  1.1685439127  0.0000000000
O  2.4817373132  -0.6058866040  0.0000000000
C  -1.7281259492  -0.2780409419  0.0000000000
O  -0.9776932791  -1.1687929073  0.0000000000
O  -2.4820362868  0.6056310960  0.0000000000