6
charge=0, multiplicity=1, basis=def2-QZVPPD, comment=['step_size = 0.003'], AUX_BASIS_CORR=rimp2-def2-QZVPPD, SCF_ALGORITHM=GDM, xc_grid=000099000590, mem_total=3750, num_basis=264, num_pairs=33337, num_threads=1
H  0.8146881976  1.8642981431  0.0000000000
O  -0.0671036856  1.4897344704  0.0000000000
H  0.0722623174  0.5346902037  0.0000000000
H  -0.4134459740  -1.7594721536  0.7601415420
O  0.0633194526  -1.4191670608  0.0000000000
H  -0.4134459740  -1.7594721536  -0.7601415420