6
charge=0, multiplicity=1, basis=def2-QZVPPD, comment=['step_size = 0.003'], AUX_BASIS_CORR=rimp2-def2-QZVPPD, SCF_ALGORITHM=GDM, xc_grid=000099000590, mem_total=3750, num_basis=261, num_pairs=33434, num_threads=1
F  -0.0001023953  1.2729567295  -0.0000000000
H  0.0009153894  0.3236431197  0.0000000000
N  0.0002068799  -1.3728612195  0.0000000000
H  0.9400369275  -1.7503587801  -0.0000000000
H  -0.4709483038  -1.7473212735  0.8146124243
H  -0.4709483038  -1.7473212735  -0.8146124243