5
charge=0, multiplicity=1, basis=def2-QZVPPD, comment=['step_size = 0.003'], AUX_BASIS_CORR=rimp2-def2-QZVPPD, SCF_ALGORITHM=GDM, xc_grid=000099000590, mem_total=3750, num_basis=231, num_pairs=26164, num_threads=1
F  -0.0072939644  1.2998616822  0.0000000000
H  0.0404340449  0.3672265996  0.0000000000
O  0.0529812815  -1.3471910948  0.0000000000
H  -0.3718938229  -1.7449408350  0.7631709524
H  -0.3718938229  -1.7449408350  -0.7631709524