8
charge=0, multiplicity=1, basis=def2-QZVPPD, comment=['step_size = 0.001'], AUX_BASIS_CORR=rimp2-def2-QZVPPD, SCF_ALGORITHM=GDM, xc_grid=000099000590, mem_total=3750, num_basis=324, num_pairs=48273, num_threads=1
N  -0.0593046167  1.6406348700  0.0000000000
H  0.3234811124  2.1126413861  -0.8102252855
H  0.3234811124  2.1126413861  0.8102252855
H  0.3188298376  0.6976706020  0.0000000000
N  0.0345214913  -1.5879030991  0.0000000000
H  -0.9358472054  -1.2925313187  0.0000000000
H  0.1572002876  -2.1815478885  -0.8122041742
H  0.1572002876  -2.1815478885  0.8122041742