10
charge=0, multiplicity=1, basis=def2-QZVPPD, comment=['step_size = 0.001'], AUX_BASIS_CORR=rimp2-def2-QZVPPD, SCF_ALGORITHM=GDM, xc_grid=000099000590, mem_total=3750, num_basis=390, num_pairs=69840, num_threads=1
C  1.8243775709  -0.0000590346  0.0000561482
H  1.4602486385  0.8868445655  0.5151206461
H  1.4602606281  0.0033408911  -1.0255680876
H  1.4600741628  -0.8897663297  0.5100808481
H  2.9126976033  0.0002837876  -0.0003019899
C  -1.8243775091  -0.0000590346  0.0000562282
H  -2.9126975767  0.0002835676  -0.0002380099
H  -1.4600679319  -0.0027699489  1.0255828924
H  -1.4601708615  -0.8864677745  -0.5157794739
H  -1.4603453972  0.8896570703  -0.5102348719