8
charge=0, multiplicity=1, basis=def2-QZVPPD, comment=['step_size = 0.001'], AUX_BASIS_CORR=rimp2-def2-QZVPPD, SCF_ALGORITHM=GDM, xc_grid=000099000590, mem_total=3750, num_basis=324, num_pairs=48273, num_threads=1
N  -0.0593119833  1.6406351700  0.0000000000
H  0.3235145276  2.1126930339  -0.8103155345
H  0.3235145276  2.1126930339  0.8103155345
H  0.3188644424  0.6975612780  0.0000000000
N  0.0344700487  -1.5879579409  0.0000000000
H  -0.9347393346  -1.2929557413  0.0000000000
H  0.1570041924  -2.1809537515  -0.8112925258
H  0.1570041924  -2.1809537515  0.8112925258