4
charge=0, multiplicity=1, basis=def2-QZVPPD, comment=['step_size = 0.01'], AUX_BASIS_CORR=rimp2-def2-QZVPPD, SCF_ALGORITHM=GDM, xc_grid=000099000590, mem_total=3750, num_basis=258, num_pairs=29140, num_threads=1
C  -1.6903796787  0.5155872968  0.0000000000
O  -2.5149769378  -0.2594981448  0.0000000000
C  1.6903796787  -0.5155872968  0.0000000000
O  2.5149769378  0.2594981448  0.0000000000