8
charge=0, multiplicity=1, basis=def2-QZVPPD, comment=['step_size = 0.003'], AUX_BASIS_CORR=rimp2-def2-QZVPPD, SCF_ALGORITHM=GDM, xc_grid=000099000590, mem_total=3750, num_basis=384, num_pairs=64034, num_threads=1
H  0.0000000000  1.6677014767  2.1872894094
C  0.0000000000  0.6035957681  2.1825195581
C  0.0000000000  -0.6035957681  2.1825195581
H  0.0000000000  -1.6677014767  2.1872894094
H  0.0000000000  0.0000000000  -0.5131792402
C  0.0000000000  0.0000000000  -1.5792027423
C  0.0000000000  0.0000000000  -2.7867643958
H  0.0000000000  0.0000000000  -3.8503496617