9
charge=0, multiplicity=1, basis=def2-QZVPPD, comment=['step_size = 0.001'], AUX_BASIS_CORR=rimp2-def2-QZVPPD, SCF_ALGORITHM=GDM, xc_grid=000099000590, mem_total=3750, num_basis=393, num_pairs=70355, num_threads=1
O  -0.7743624066  0.6532402434  0.0000000000
H  0.1402711404  0.3492424291  0.0000000000
C  -1.6137702283  -0.4880912693  0.0000000000
H  -2.6433857830  -0.1334791375  0.0000000000
H  -1.4623782672  -1.1085983856  -0.8889526987
H  -1.4623782672  -1.1085983856  0.8889526987
O  2.0133185483  -0.1810068954  0.0000000000
H  2.4898118753  0.1591833550  -0.7603678301
H  2.4898118753  0.1591833550  0.7603678301