7
charge=0, multiplicity=1, basis=def2-QZVPPD, comment=['step_size = 0.001'], AUX_BASIS_CORR=rimp2-def2-QZVPPD, SCF_ALGORITHM=GDM, xc_grid=000099000590, mem_total=3750, num_basis=337, num_pairs=52652, num_threads=1
C  0.0000000000  -0.6673126773  2.2285417940
C  0.0000000000  0.6673126773  2.2285417940
H  0.0000000000  -1.2319549445  3.1529289655
H  0.0000000000  -1.2325423770  1.3045667707
H  0.0000000000  1.2319549445  3.1529289655
H  0.0000000000  1.2325423770  1.3045667707
Ar  0.0000000000  0.0000000000  -1.5632139235