5
charge=0, multiplicity=1, basis=def2-QZVPPD, comment=['step_size = 0.003'], AUX_BASIS_CORR=rimp2-def2-QZVPPD, SCF_ALGORITHM=GDM, xc_grid=000099000590, mem_total=3750, num_basis=271, num_pairs=33513, num_threads=1
C  -2.0998998670  -0.5754759317  0.0000000000
C  -2.7326135481  0.4522571936  0.0000000000
H  -1.5438997966  -1.4822480295  0.0000000000
H  -3.2918444166  1.3570140258  0.0000000000
Ar  1.5730729595  0.0401587303  0.0000000000