9
charge=0, multiplicity=1, basis=def2-QZVPPD, comment=['step_size = 0.01'], AUX_BASIS_CORR=rimp2-def2-QZVPPD, SCF_ALGORITHM=GDM, xc_grid=000099000590, mem_total=3750, num_basis=393, num_pairs=70334, num_threads=1
O  -0.7744672300  0.6531056000  0.0002497548
H  0.1402446500  0.3493741000  -0.0006156091
C  -1.6136411200  -0.4879550600  -0.0002993042
H  -2.6432310200  -0.1332504000  0.0021536739
H  -1.4639757639  -1.1069188849  -0.8906425682
H  -1.4608046361  -1.1101001551  0.8872699918
O  2.0133203300  -0.1810094600  0.0003597623
H  2.4898939416  0.1534839760  -0.7625041069
H  2.4897234784  0.1649003640  0.7582289131