6
charge=0, multiplicity=1, basis=def2-QZVPPD, comment=['step_size = 0.003'], AUX_BASIS_CORR=rimp2-def2-QZVPPD, SCF_ALGORITHM=GDM, xc_grid=000099000590, mem_total=3750, num_basis=390, num_pairs=68687, num_threads=1
C  1.7286415287  0.2785431596  0.0000000000
O  0.9778787925  1.1690205830  0.0000000000
O  2.4817732373  -0.6057887003  0.0000000000
C  -1.7286415287  -0.2785431596  0.0000000000
O  -0.9778787925  -1.1690205830  0.0000000000
O  -2.4817732373  0.6057887003  0.0000000000