5
charge=0, multiplicity=1, basis=def2-QZVPPD, comment=['step_size = 0.003'], AUX_BASIS_CORR=rimp2-def2-QZVPPD, SCF_ALGORITHM=GDM, xc_grid=000099000590, mem_total=3750, num_basis=271, num_pairs=33513, num_threads=1
C  -2.1003709285  -0.5757659418  0.0000000000
C  -2.7324310327  0.4523697072  0.0000000000
H  -1.5407670424  -1.4803176907  0.0000000000
H  -3.2915386250  1.3572023305  0.0000000000
Ar  1.5730728871  0.0401585985  0.0000000000