8
charge=0, multiplicity=1, basis=def2-QZVPPD, comment=['step_size = 0.001'], AUX_BASIS_CORR=rimp2-def2-QZVPPD, SCF_ALGORITHM=GDM, xc_grid=000099000590, mem_total=3750, num_basis=327, num_pairs=49748, num_threads=1
O  -1.6538515564  0.0622773742  0.0000000000
H  -2.0725209652  -0.8003333741  0.0000000000
H  -0.7133121468  -0.1276502377  0.0000000000
C  1.8239603633  -0.0037848655  0.0000000000
H  1.4088701567  0.4644494041  0.8913330106
H  1.4088701567  0.4644494041  -0.8913330106
H  2.9042552801  0.1244233841  0.0000000000
H  1.5940782304  -1.0686599211  0.0000000000