8
charge=0, multiplicity=1, basis=def2-QZVPPD, comment=['step_size = 0.001'], AUX_BASIS_CORR=rimp2-def2-QZVPPD, SCF_ALGORITHM=GDM, xc_grid=000099000590, mem_total=3750, num_basis=324, num_pairs=48322, num_threads=1
N  -0.0593083000  1.6406350200  0.0000642787
H  0.3237010004  2.1123080490  -0.8103498531
H  0.3232946396  2.1130263710  0.8101909669
H  0.3188471400  0.6976159400  -0.0007568941
N  0.0344957700  -1.5879305200  0.0000083483
H  -0.9352932700  -1.2927435300  -0.0000715261
H  0.1570708050  -2.1812356447  -0.8117592493
H  0.1571336750  -2.1812659953  0.8117374507