6
charge=0, multiplicity=1, basis=def2-QZVPPD, comment=['step_size = 0.003'], AUX_BASIS_CORR=rimp2-def2-QZVPPD, SCF_ALGORITHM=GDM, xc_grid=000099000590, mem_total=3750, num_basis=291, num_pairs=41160, num_threads=1
F  -0.0000000100  1.7591113776  0.0000000000
H  0.0000003399  0.8336497980  0.0000000000
C  0.0000000500  -1.3164842537  -0.6039940437
C  0.0000000500  -1.3164842537  0.6039940437
H  -0.0000006300  -1.3220838339  1.6688114937
H  -0.0000006300  -1.3220838339  -1.6688114937