4
charge=0, multiplicity=1, basis=def2-QZVPPD, comment=['step_size = 0.001'], AUX_BASIS_CORR=rimp2-def2-QZVPPD, SCF_ALGORITHM=GDM, xc_grid=000099000590, mem_total=3750, num_basis=252, num_pairs=27854, num_threads=1
N  -1.6203638719  0.4785307924  0.0000000000
N  -2.3695575300  -0.3271696646  0.0000000000
N  2.3695575300  0.3271696646  0.0000000000
N  1.6203638719  -0.4785307924  0.0000000000