9
charge=0, multiplicity=1, basis=def2-QZVPPD, comment=['step_size = 0.001'], AUX_BASIS_CORR=rimp2-def2-QZVPPD, SCF_ALGORITHM=GDM, xc_grid=000099000590, mem_total=3750, num_basis=393, num_pairs=70355, num_threads=1
O  -0.7744678623  0.6531037824  0.0000000000
H  0.1402307813  0.3493750862  0.0000000000
C  -1.6136476290  -0.4880029810  0.0000000000
H  -2.6429303606  -0.1333629766  0.0000000000
H  -1.4624885025  -1.1081546289  -0.8884132137
H  -1.4624885025  -1.1081546289  0.8884132137
O  2.0133201843  -0.1810092984  0.0000000000
H  2.4898085420  0.1591915083  -0.7603659847
H  2.4898085420  0.1591915083  0.7603659847