9
charge=0, multiplicity=1, basis=def2-QZVPPD, comment=['step_size = 0.003'], AUX_BASIS_CORR=rimp2-def2-QZVPPD, SCF_ALGORITHM=GDM, xc_grid=000099000590, mem_total=3750, num_basis=393, num_pairs=70397, num_threads=1
O  -0.7740691460  0.6529656281  0.0000000000
H  0.1405762056  0.3490305619  0.0000000000
C  -1.6134795755  -0.4879096353  0.0000000000
H  -2.6430003042  -0.1330017288  0.0000000000
H  -1.4623601491  -1.1085010685  -0.8889551323
H  -1.4623601491  -1.1085010685  0.8889551323
O  2.0128692320  -0.1809743802  0.0000000000
H  2.4889564681  0.1597930776  -0.7603676334
H  2.4889564681  0.1597930776  0.7603676334