6
charge=0, multiplicity=1, basis=def2-QZVPPD, comment=['step_size = 0.001'], AUX_BASIS_CORR=rimp2-def2-QZVPPD, SCF_ALGORITHM=GDM, xc_grid=000099000590, mem_total=3750, num_basis=264, num_pairs=33337, num_threads=1
H  0.8153553823  1.8631427211  0.0000000000
O  -0.0671363189  1.4901066302  0.0000000000
H  0.0720441627  0.5350007019  0.0000000000
H  -0.4127192076  -1.7609396204  0.7600574991
O  0.0632322071  -1.4193010552  0.0000000000
H  -0.4127192076  -1.7609396204  -0.7600574991