6
charge=0, multiplicity=1, basis=def2-QZVPPD, comment=['step_size = 0.003'], AUX_BASIS_CORR=rimp2-def2-QZVPPD, SCF_ALGORITHM=GDM, xc_grid=000099000590, mem_total=3750, num_basis=390, num_pairs=68687, num_threads=1
C  1.7281288422  0.2780391399  0.0000000000
O  0.9776950523  1.1687986641  0.0000000000
O  2.4820319505  -0.6056307379  0.0000000000
C  -1.7281288422  -0.2780391399  0.0000000000
O  -0.9776950523  -1.1687986641  0.0000000000
O  -2.4820319505  0.6056307379  0.0000000000