7
charge=0, multiplicity=1, basis=def2-QZVPPD, comment=['step_size = 0.001'], AUX_BASIS_CORR=rimp2-def2-QZVPPD, SCF_ALGORITHM=GDM, xc_grid=000099000590, mem_total=3750, num_basis=294, num_pairs=41556, num_threads=1
F  -0.0000006988  -1.4637909400  0.0000000000
H  0.0000203777  -0.5449047627  0.0000000000
C  -0.0000006300  1.7666637674  0.0000000000
H  0.5160272655  1.4163993756  0.8937830770
H  0.5160272655  1.4163993756  -0.8937830770
H  -1.0320483307  1.4163863055  0.0000000000
H  -0.0000059998  2.8541252070  0.0000000000