3
charge=0, multiplicity=1, basis=def2-QZVPPD, comment=['step_size = {step_size}'], AUX_BASIS_CORR=rimp2-def2-QZVPPD, SCF_ALGORITHM=GDM, xc_grid=000099000590, mem_total=3750, num_basis=205, num_pairs=19310, num_threads=1
N  0.0000000000  -0.5502512300  2.1813941100
N  0.0000000000  0.5502512300  2.1813941100
Ar  0.0000000000  0.0000000000  -1.5287488000