9
charge=0, multiplicity=1, basis=def2-QZVPPD, comment=['step_size = 0.001'], AUX_BASIS_CORR=rimp2-def2-QZVPPD, SCF_ALGORITHM=GDM, xc_grid=000099000590, mem_total=3750, num_basis=393, num_pairs=70355, num_threads=1
O  -0.7744094754  0.6530885786  0.0000000000
H  0.1393339970  0.3496649511  0.0000000000
C  -1.6136398606  -0.4879559851  0.0000000000
H  -2.6432482457  -0.1332477931  0.0000000000
H  -1.4623921943  -1.1085156433  -0.8889599367
H  -1.4623921943  -1.1085156433  0.8889599367
O  2.0133263423  -0.1810053341  0.0000000000
H  2.4897611324  0.1591594021  -0.7602863378
H  2.4897611324  0.1591594021  0.7602863378