5
charge=0, multiplicity=1, basis=def2-QZVPPD, comment=['step_size = 0.001'], AUX_BASIS_CORR=rimp2-def2-QZVPPD, SCF_ALGORITHM=GDM, xc_grid=000099000590, mem_total=3750, num_basis=241, num_pairs=27103, num_threads=1
N  0.0655721787  -2.4982225478  0.0000000000
H  -0.3754782196  -2.0830842472  0.8117921854
H  -0.3754782196  -2.0830842472  -0.8117921854
H  -0.1944073554  -3.4771839733  0.0000000000
Ar  0.0008645410  1.0681534293  0.0000000000