9
charge=0, multiplicity=1, basis=def2-QZVPPD, comment=['step_size = 0.001'], AUX_BASIS_CORR=rimp2-def2-QZVPPD, SCF_ALGORITHM=GDM, xc_grid=000099000590, mem_total=3750, num_basis=393, num_pairs=70355, num_threads=1
O  -0.7744755684  0.6530926711  0.0000000000
H  0.1402370750  0.3493836492  0.0000000000
C  -1.6137145975  -0.4880275486  0.0000000000
H  -2.6430688012  -0.1326897640  0.0000000000
H  -1.4619579011  -1.1082632009  -0.8890696459
H  -1.4619579011  -1.1082632009  0.8890696459
O  2.0133192750  -0.1810090981  0.0000000000
H  2.4898110710  0.1591920362  -0.7603645419
H  2.4898110710  0.1591920362  0.7603645419