5
charge=0, multiplicity=1, basis=def2-QZVPPD, comment=['step_size = 0.01'], AUX_BASIS_CORR=rimp2-def2-QZVPPD, SCF_ALGORITHM=GDM, xc_grid=000099000590, mem_total=3750, num_basis=241, num_pairs=27103, num_threads=1
N  0.0655403881  -2.4962030803  0.0000000000
H  -0.3761818102  -2.0810050982  0.8114132279
H  -0.3761818102  -2.0810050982  -0.8114132279
H  -0.1930691427  -3.4755007556  0.0000000000
Ar  0.0008774200  1.0672984759  0.0000000000