9
charge=0, multiplicity=1, basis=def2-QZVPPD, comment=['step_size = 0.003'], AUX_BASIS_CORR=rimp2-def2-QZVPPD, SCF_ALGORITHM=GDM, xc_grid=000099000590, mem_total=3750, num_basis=393, num_pairs=70355, num_threads=1
O  -0.7744672300  0.6531056000  0.0001567291
H  0.1402446500  0.3493741000  -0.0007145633
C  -1.6136411200  -0.4879550600  -0.0000042915
H  -2.6432310200  -0.1332504000  -0.0007850935
H  -1.4618230507  -1.1087979248  -0.8886582242
H  -1.4629573493  -1.1082211152  0.8892543358
O  2.0133203300  -0.1810094600  -0.0001617556
H  2.4913380621  0.1585606509  -0.7598493008
H  2.4882793579  0.1598236891  0.7608837192