6
charge=0, multiplicity=1, basis=def2-QZVPPD, comment=['step_size = 0.001'], AUX_BASIS_CORR=rimp2-def2-QZVPPD, SCF_ALGORITHM=GDM, xc_grid=000099000590, mem_total=3750, num_basis=274, num_pairs=35091, num_threads=1
C  0.0000000048  2.6305403468  0.0000000000
H  -0.5127965910  2.2672985183  0.8881865515
H  -0.5127965910  2.2672985183  -0.8881865515
H  0.0000056254  3.7197068277  0.0000000000
H  1.0255875298  2.2672906239  0.0000000000
Ar  -0.0000000000  -1.0552526337  0.0000000000