10
charge=0, multiplicity=1, basis=def2-QZVPPD, comment=['step_size = 0.001'], AUX_BASIS_CORR=rimp2-def2-QZVPPD, SCF_ALGORITHM=GDM, xc_grid=000099000590, mem_total=3750, num_basis=390, num_pairs=69840, num_threads=1
C  1.8243778493  -0.0000000000  -0.0000000396
H  1.4603270446  0.8863699757  0.5152836832
H  1.4602815871  0.0030544341  -1.0252444609
H  1.4603270743  -0.8894245195  0.5099931918
H  2.9123425099  0.0000001100  -0.0000319794
C  -1.8243778493  0.0000000000  0.0000000396
H  -2.9123425099  -0.0000001100  0.0000319794
H  -1.4602815871  -0.0030544341  1.0252444609
H  -1.4603270446  -0.8863699757  -0.5152836832
H  -1.4603270743  0.8894245195  -0.5099931918