7
charge=0, multiplicity=1, basis=def2-QZVPPD, comment=['step_size = 0.003'], AUX_BASIS_CORR=rimp2-def2-QZVPPD, SCF_ALGORITHM=GDM, xc_grid=000099000590, mem_total=3750, num_basis=294, num_pairs=41556, num_threads=1
F  -0.0000007000  -1.4638424100  0.0001105180
H  0.0000204000  -0.5439340900  -0.0029393866
C  -0.0000006300  1.7666638200  0.0000601873
H  0.5159989393  1.4163718775  0.8938240639
H  0.5160502607  1.4164249825  -0.8937328561
H  -1.0320430000  1.4163853600  0.0000900395
H  -0.0000060000  2.8541270000  -0.0000418646