4
charge=0, multiplicity=1, basis=def2-QZVPPD, comment=['step_size = 0.003'], AUX_BASIS_CORR=rimp2-def2-QZVPPD, SCF_ALGORITHM=GDM, xc_grid=000099000590, mem_total=3750, num_basis=198, num_pairs=19055, num_threads=1
F  1.4002852191  -0.0097652872  0.0000000000
H  0.4860522604  0.1198398423  0.0000000000
F  -1.3366104619  0.0461357414  0.0000000000
H  -1.6863784281  -0.8054554105  0.0000000000