8
charge=0, multiplicity=1, basis=def2-QZVPPD, comment=['step_size = 0.001'], AUX_BASIS_CORR=rimp2-def2-QZVPPD, SCF_ALGORITHM=GDM, xc_grid=000099000590, mem_total=3750, num_basis=327, num_pairs=49748, num_threads=1
O  -1.6538803196  0.0623371735  0.0000000000
H  -2.0719275818  -0.8006284245  0.0000000000
H  -0.7134411255  -0.1283102328  0.0000000000
C  1.8240286371  -0.0038766728  0.0000000000
H  1.4087266253  0.4646918419  0.8910780570
H  1.4087266253  0.4646918419  -0.8910780570
H  2.9042306080  0.1249855976  0.0000000000
H  1.5935691290  -1.0686078911  0.0000000000