10
charge=0, multiplicity=1, basis=def2-QZVPPD, comment=['step_size = 0.001'], AUX_BASIS_CORR=rimp2-def2-QZVPPD, SCF_ALGORITHM=GDM, xc_grid=000099000590, mem_total=3750, num_basis=390, num_pairs=69840, num_threads=1
C  1.8244589286  0.0000000383  -0.0000000446
H  1.4598669201  0.8865325875  0.5153783444
H  1.4598215061  0.0030548110  -1.0254325884
H  1.4598670629  -0.8895877768  0.5100867192
H  2.9127568309  -0.0000000774  -0.0000319803
C  -1.8242961514  0.0000000383  0.0000000354
H  -2.9126383491  -0.0000002974  0.0000319997
H  -1.4605070539  -0.0030560290  1.0257183916
H  -1.4605525799  -0.8867797525  -0.5155217756
H  -1.4605524971  0.8898356232  -0.5102290008