7
charge=0, multiplicity=1, basis=def2-QZVPPD, comment=['step_size = 0.001'], AUX_BASIS_CORR=rimp2-def2-QZVPPD, SCF_ALGORITHM=GDM, xc_grid=000099000590, mem_total=3750, num_basis=294, num_pairs=41556, num_threads=1
F  -0.0000007000  -1.4638436969  0.0000000000
H  0.0000203999  -0.5439305416  0.0000000000
C  -0.0000006463  1.7665494372  0.0000000000
H  0.5161210026  1.4168876054  0.8939452919
H  0.5161210026  1.4168876054  -0.8939452919
H  -1.0322356914  1.4168744875  0.0000000000
H  -0.0000059185  2.8540421685  0.0000000000