4
charge=0, multiplicity=1, basis=def2-QZVPPD, comment=['step_size = 0.001'], AUX_BASIS_CORR=rimp2-def2-QZVPPD, SCF_ALGORITHM=GDM, xc_grid=000099000590, mem_total=3750, num_basis=252, num_pairs=27854, num_threads=1
N  -1.6203638423  0.4785307758  0.0000000000
N  -2.3695575277  -0.3271696558  0.0000000000
N  2.3697394923  0.3273653642  0.0000000000
N  1.6201818777  -0.4787264842  0.0000000000