4
charge=0, multiplicity=1, basis=def2-QZVPPD, comment=['step_size = {step_size}'], AUX_BASIS_CORR=rimp2-def2-QZVPPD, SCF_ALGORITHM=GDM, xc_grid=000099000590, mem_total=3750, num_basis=258, num_pairs=29140, num_threads=1
C  -1.6889978200  0.5142218700  0.0000000000
O  -2.5152895600  -0.2590543900  0.0000000000
C  1.6889978200  -0.5142218700  0.0000000000
O  2.5152895600  0.2590543900  0.0000000000