8
charge=0, multiplicity=1, basis=def2-QZVPPD, comment=['step_size = 0.01'], AUX_BASIS_CORR=rimp2-def2-QZVPPD, SCF_ALGORITHM=GDM, xc_grid=000099000590, mem_total=3750, num_basis=384, num_pairs=64040, num_threads=1
H  0.0000000000  1.6677084760  2.1838391677
C  0.0000000000  0.6035957994  2.1813091657
C  0.0000000000  -0.6035957994  2.1813091657
H  0.0000000000  -1.6677084760  2.1838391677
H  0.0000000000  0.0000000000  -0.5117979544
C  0.0000000000  0.0000000000  -1.5778188117
C  0.0000000000  0.0000000000  -2.7853797932
H  0.0000000000  0.0000000000  -3.8489649133