10
charge=0, multiplicity=1, basis=def2-QZVPPD, comment=['step_size = {step_size}'], AUX_BASIS_CORR=rimp2-def2-QZVPPD, SCF_ALGORITHM=GDM, xc_grid=000099000590, mem_total=3750, num_basis=390, num_pairs=69840, num_threads=1
C  1.8243775400  0.0000000000  -0.0000000400
H  1.4602097500  0.8866561700  0.5154500600
H  1.4601642800  0.0030554200  -1.0255754900
H  1.4602097800  -0.8897117000  0.5101578600
H  2.9126975900  0.0000001100  -0.0000319900
C  -1.8243775400  0.0000000000  0.0000000400
H  -2.9126975900  -0.0000001100  0.0000319900
H  -1.4601642800  -0.0030554200  1.0255754900
H  -1.4602097500  -0.8866561700  -0.5154500600
H  -1.4602097800  0.8897117000  -0.5101578600