6
charge=0, multiplicity=1, basis=def2-QZVPPD, comment=['step_size = 0.003'], AUX_BASIS_CORR=rimp2-def2-QZVPPD, SCF_ALGORITHM=GDM, xc_grid=000099000590, mem_total=3750, num_basis=327, num_pairs=50678, num_threads=1
H  0.0020851688  -0.7604290300  -2.5307197500
O  0.0000000000  0.0000000000  -1.9463955600
H  -0.0020851688  0.7604290300  -2.5307197500
O  -0.0000859090  -1.1628517000  0.8288902900
C  0.0000000000  0.0000000000  0.8097848000
O  0.0000859090  1.1628517000  0.8288902900