10
charge=0, multiplicity=1, basis=def2-QZVPPD, comment=['step_size = 0.01'], AUX_BASIS_CORR=rimp2-def2-QZVPPD, SCF_ALGORITHM=GDM, xc_grid=000099000590, mem_total=3750, num_basis=390, num_pairs=69840, num_threads=1
C  1.8226123139  0.0000000011  0.0000000174
H  1.4584404274  0.8866540108  0.5154490447
H  1.4583941496  0.0030554187  -1.0255727378
H  1.4584404298  -0.8897095210  0.5101568575
H  2.9109325555  0.0000000958  -0.0000324926
C  -1.8226123139  -0.0000000011  -0.0000000174
H  -2.9109325555  -0.0000000958  0.0000324926
H  -1.4583941496  -0.0030554187  1.0255727378
H  -1.4584404274  -0.8866540108  -0.5154490447
H  -1.4584404298  0.8897095210  -0.5101568575