8
charge=0, multiplicity=1, basis=def2-QZVPPD, comment=['step_size = 0.001'], AUX_BASIS_CORR=rimp2-def2-QZVPPD, SCF_ALGORITHM=GDM, xc_grid=000099000590, mem_total=3750, num_basis=327, num_pairs=49748, num_threads=1
O  -1.6538507906  0.0622770334  0.0000000000
H  -2.0725219369  -0.8003332493  0.0000000000
H  -0.7133156880  -0.1276461382  0.0000000000
C  1.8239427974  -0.0038753831  0.0000000000
H  1.4087701141  0.4646059684  0.8907880346
H  1.4087701141  0.4646059684  -0.8907880346
H  2.9050762523  0.1250025650  0.0000000000
H  1.5936588575  -1.0684732687  0.0000000000