8
charge=0, multiplicity=1, basis=def2-QZVPPD, comment=['step_size = 0.01'], AUX_BASIS_CORR=rimp2-def2-QZVPPD, SCF_ALGORITHM=GDM, xc_grid=000099000590, mem_total=3750, num_basis=324, num_pairs=48317, num_threads=1
N  -0.0593083000  1.6406350200  -0.0004646769
H  0.3265946693  2.1125464413  -0.8093418045
H  0.3204009707  2.1127879787  0.8111990155
H  0.3188471400  0.6976159400  0.0011356595
N  0.0344957700  -1.5879305200  0.0004175166
H  -0.9352932700  -1.2927435300  0.0035761907
H  0.1556907554  -2.1769312966  -0.8147052600
H  0.1585137246  -2.1855703434  0.8087914400