8
charge=0, multiplicity=1, basis=def2-QZVPPD, comment=['step_size = 0.001'], AUX_BASIS_CORR=rimp2-def2-QZVPPD, SCF_ALGORITHM=GDM, xc_grid=000099000590, mem_total=3750, num_basis=327, num_pairs=49748, num_threads=1
O  -1.6538218404  0.0622170665  0.0000000000
H  -2.0731155982  -0.8000378555  0.0000000000
H  -0.7131842745  -0.1269858672  0.0000000000
C  1.8240316029  -0.0038754472  0.0000000000
H  1.4086231347  0.4647782581  0.8909893430
H  1.4086231347  0.4647782581  -0.8909893430
H  2.9042523320  0.1248157224  0.0000000000
H  1.5937221310  -1.0686341889  0.0000000000