10
charge=0, multiplicity=1, basis=def2-QZVPPD, comment=['step_size = 0.001'], AUX_BASIS_CORR=rimp2-def2-QZVPPD, SCF_ALGORITHM=GDM, xc_grid=000099000590, mem_total=3750, num_basis=390, num_pairs=69840, num_threads=1
C  1.8243775348  0.0000610950  0.0000100001
H  1.4603854642  0.8862429615  0.5152041809
H  1.4601343460  0.0030692530  -1.0256573410
H  1.4600640101  -0.8900533928  0.5103638058
H  2.9126976421  0.0000139720  -0.0000297119
C  -1.8243775348  -0.0000610950  -0.0000100001
H  -2.9126976421  -0.0000139720  0.0000297119
H  -1.4601343460  -0.0030692530  1.0256573410
H  -1.4603854642  -0.8862429615  -0.5152041809
H  -1.4600640101  0.8900533928  -0.5103638058