3
charge=0, multiplicity=2, basis=def2-QZVPPD, AUX_BASIS_CORR=rimp2-def2-QZVPPD, SCF_ALGORITHM=GDM, xc_grid=000099000590, mem_total=3750, num_basis=191, num_pairs=18551, num_threads=1
S  0.0000000000  0.0000000000  0.0000000000
H  0.0000000000  0.0000000000  1.3503020000
S  1.9381992387  0.0000000000  -0.3866333305