4
charge=0, multiplicity=1, basis=def2-QZVPPD, AUX_BASIS_CORR=rimp2-def2-QZVPPD, SCF_ALGORITHM=GDM, xc_grid=000099000590, mem_total=3750, num_basis=198, num_pairs=20064, num_threads=1
H  0.0000000000  0.0000000000  0.0000000000
O  0.0000000000  0.0000000000  0.9626872700
O  1.4308050583  0.0000000000  1.2126851264
H  1.5316919221  0.8764384826  1.5979697053