7
charge=0, multiplicity=1, basis=def2-QZVPPD, AUX_BASIS_CORR=rimp2-def2-QZVPPD, SCF_ALGORITHM=GDM, xc_grid=000099000590, mem_total=3750, num_basis=321, num_pairs=50708, num_threads=1
C  0.0000000000  0.0000000000  0.0000000000
C  0.0000000000  0.0000000000  1.3105151610
C  0.0000000000  0.0000000000  -1.3105151610
H  -0.9290204120  0.0000000000  -1.8660595789
H  0.9290204120  0.0000000000  -1.8660595789
H  0.0000000000  0.9290204120  1.8660595789
H  0.0000000000  -0.9290204120  1.8660595789