7
charge=0, multiplicity=1, basis=def2-QZVPPD, AUX_BASIS_CORR=rimp2-def2-QZVPPD, SCF_ALGORITHM=GDM, xc_grid=000099000590, mem_total=3750, num_basis=390, num_pairs=75265, num_threads=1
C  0.0000000000  0.0000000000  0.5752949647
C  0.0000000000  0.0000000000  -1.3538285497
O  0.0000000000  1.0183613553  -0.3455696637
O  0.0000000000  -1.0183613553  -0.3455696637
O  0.0000000000  0.0000000000  1.7518331196
H  -0.9114151882  0.0000000000  -1.9457696034
H  0.9114151882  0.0000000000  -1.9457696034