5
charge=0, multiplicity=1, basis=def2-QZVPPD, AUX_BASIS_CORR=rimp2-def2-QZVPPD, SCF_ALGORITHM=GDM, xc_grid=000099000590, mem_total=3750, num_basis=261, num_pairs=34580, num_threads=1
C  0.4132439891  0.0000000000  0.0990768840
H  1.5049629171  0.0000000000  0.0321418022
O  -0.2159205410  0.0000000000  1.1203771101
O  -0.1209708800  0.0000000000  -1.1338196209
H  -1.0808974803  0.0000000000  -1.0179141138