3
charge=0, multiplicity=2, basis=def2-QZVPPD, AUX_BASIS_CORR=rimp2-def2-QZVPPD, SCF_ALGORITHM=GDM, xc_grid=000099000590, mem_total=3750, num_basis=159, num_pairs=13029, num_threads=1
H  0.0000000000  0.0000000000  0.0000000000
N  0.0000000000  0.0000000000  1.0499342000
N  1.0550710531  0.0000000000  1.5764618356