4
charge=0, multiplicity=1, basis=def2-QZVPPD, AUX_BASIS_CORR=rimp2-def2-QZVPPD, SCF_ALGORITHM=GDM, xc_grid=000099000590, mem_total=3750, num_basis=274, num_pairs=37311, num_threads=1
P  0.0000000000  0.0000000000  0.4985070000
F  0.0000000000  1.3606270000  -0.2769520000
F  -1.1783370000  -0.6803130000  -0.2769520000
F  1.1783370000  -0.6803130000  -0.2769520000