9
charge=0, multiplicity=1, basis=def2-QZVPPD, AUX_BASIS_CORR=rimp2-def2-QZVPPD, SCF_ALGORITHM=GDM, xc_grid=000099000590, mem_total=3750, num_basis=387, num_pairs=75468, num_threads=1
C  0.0000000000  0.8698900000  0.0000000000
C  0.7533400000  -0.4349100000  0.0000000000
C  -0.7533400000  -0.4349100000  0.0000000000
H  0.0000000000  1.4516300000  0.9105700000
H  1.2571300000  -0.7257800000  0.9105700000
H  -1.2571300000  -0.7257800000  0.9105700000
H  0.0000000000  1.4516300000  -0.9105700000
H  1.2571300000  -0.7257800000  -0.9105700000
H  -1.2571300000  -0.7257800000  -0.9105700000