5
charge=0, multiplicity=1, basis=def2-QZVPPD, AUX_BASIS_CORR=rimp2-def2-QZVPPD, SCF_ALGORITHM=GDM, xc_grid=000099000590, mem_total=3750, num_basis=258, num_pairs=33365, num_threads=1
C  0.0000000000  0.0000000000  -1.2133514826
H  0.0000000000  0.9416580722  -1.7364519704
H  0.0000000000  -0.9416580722  -1.7364519704
C  0.0000000000  0.0000000000  0.1026836089
O  0.0000000000  0.0000000000  1.2659018146