3
charge=0, multiplicity=2, basis=def2-QZVPPD, AUX_BASIS_CORR=rimp2-def2-QZVPPD, SCF_ALGORITHM=GDM, xc_grid=000200000974, mem_total=3750, num_basis=211, num_pairs=22265, num_threads=1
Cl  0.0000000000  0.0000000000  0.0000000000
O  0.0000000000  0.0000000000  2.0323055400
O  1.0916052500  0.0000000000  2.5499087976