4
charge=0, multiplicity=1, basis=def2-QZVPPD, AUX_BASIS_CORR=rimp2-def2-QZVPPD, SCF_ALGORITHM=GDM, xc_grid=000099000590, mem_total=3750, num_basis=252, num_pairs=31388, num_threads=1
N  0.0000000000  0.0000000000  0.0000000000
C  0.0000000000  0.0000000000  1.1612768900
C  0.0000000000  0.0000000000  2.5491204300
N  0.0000000000  0.0000000000  3.7103973200