6
charge=0, multiplicity=1, basis=def2-QZVPPD, AUX_BASIS_CORR=rimp2-def2-QZVPPD, SCF_ALGORITHM=GDM, xc_grid=000099000590, mem_total=3750, num_basis=324, num_pairs=51963, num_threads=1
C  -0.3302667045  0.6840754265  0.0000000000
C  0.3302667045  -0.6840754265  0.0000000000
H  -1.4327262753  0.6722433198  0.0000000000
H  1.4327262753  -0.6722433198  0.0000000000
O  0.3265029330  1.6972322457  0.0000000000
O  -0.3265029330  -1.6972322457  0.0000000000