10
charge=0, multiplicity=1, basis=def2-QZVPPD, AUX_BASIS_CORR=rimp2-def2-QZVPPD, SCF_ALGORITHM=GDM, xc_grid=000099000590, mem_total=3750, num_basis=450, num_pairs=96095, num_threads=1
C  0.6061600900  0.4054868700  0.0000000000
C  -0.6061600900  -0.4054868700  0.0000000000
C  1.8439665000  -0.1109533600  0.0000000000
C  -1.8439665000  0.1109533600  0.0000000000
H  0.4720255400  1.4831076600  0.0000000000
H  -0.4720255400  -1.4831076600  0.0000000000
H  2.7207100800  0.5220149500  0.0000000000
H  2.0008980200  -1.1832137500  0.0000000000
H  -2.7207100800  -0.5220149500  0.0000000000
H  -2.0008980200  1.1832137500  0.0000000000