3
charge=0, multiplicity=1, basis=def2-QZVPPD, AUX_BASIS_CORR=rimp2-def2-QZVPPD, SCF_ALGORITHM=GDM, xc_grid=000099000590, mem_total=3750, num_basis=159, num_pairs=13030, num_threads=1
H  0.0000000000  0.0000000000  -1.4799030139
N  0.0000000000  0.0000000000  -0.4837307163
C  0.0000000000  0.0000000000  0.6882961009