6
charge=0, multiplicity=1, basis=def2-QZVPPD, AUX_BASIS_CORR=rimp2-def2-QZVPPD, SCF_ALGORITHM=GDM, xc_grid=000099000590, mem_total=3750, num_basis=406, num_pairs=79543, num_threads=1
P  0.0000000000  0.0000000000  0.0000000000
F  0.0000000000  0.0000000000  1.5763726900
F  0.0000000000  1.5368007400  0.0000000000
F  0.0000000000  0.0000000000  -1.5763726900
F  -1.3309084800  -0.7684003700  0.0000000000
F  1.3309084800  -0.7684003700  0.0000000000