6
charge=0, multiplicity=1, basis=def2-QZVPPD, AUX_BASIS_CORR=rimp2-def2-QZVPPD, SCF_ALGORITHM=GDM, xc_grid=000099000590, mem_total=3750, num_basis=390, num_pairs=71925, num_threads=1
C  0.0000000000  0.0000000000  0.6623120424
C  0.0000000000  0.0000000000  -0.6623120424
F  0.0000000000  1.0976759311  1.3839572023
F  0.0000000000  -1.0976759311  1.3839572023
F  0.0000000000  -1.0976759311  -1.3839572023
F  0.0000000000  1.0976759311  -1.3839572023