6
charge=0, multiplicity=1, basis=def2-QZVPPD, AUX_BASIS_CORR=rimp2-def2-QZVPPD, SCF_ALGORITHM=GDM, xc_grid=000099000590, mem_total=3750, num_basis=376, num_pairs=70440, num_threads=1
H  0.5793689400  1.8853354800  0.0000000000
O  -0.2929449200  1.4613283500  0.0000000000
Cl  0.0097870700  -0.1384446700  0.0000000000
O  -1.2936952700  -0.6576710900  0.0000000000
O  0.7467107800  -0.3725646400  1.1818247900
O  0.7467107800  -0.3725646400  -1.1818247900