4
charge=0, multiplicity=1, basis=def2-QZVPPD, AUX_BASIS_CORR=rimp2-def2-QZVPPD, SCF_ALGORITHM=GDM, xc_grid=000099000590, mem_total=3750, num_basis=228, num_pairs=26347, num_threads=1
O  0.0000000000  0.2393234198  -1.0589436369
N  0.0000000000  -0.4954208887  -0.1469686389
O  0.0000000000  0.2250790356  1.0786175951
H  0.0000000000  -0.4870814550  1.7300376077