7
charge=0, multiplicity=1, basis=def2-QZVPPD, AUX_BASIS_CORR=rimp2-def2-QZVPPD, SCF_ALGORITHM=GDM, xc_grid=000099000590, mem_total=3750, num_basis=291, num_pairs=42987, num_threads=1
C  0.0000000000  0.0000000000  0.0000000000
N  0.0000000000  0.0000000000  1.4652103900
H  0.9935275143  0.0000000000  -0.4620147204
H  -0.5388777182  -0.8776399102  -0.3563730018
H  -0.5388777182  0.8776399102  -0.3563730018
H  0.5050043387  0.8076065689  1.8068796954
H  0.5050043387  -0.8076065689  1.8068796954