5
charge=0, multiplicity=1, basis=def2-QZVPPD, AUX_BASIS_CORR=rimp2-def2-QZVPPD, SCF_ALGORITHM=GDM, xc_grid=000099000590, mem_total=3750, num_basis=228, num_pairs=26520, num_threads=1
N  -0.0166384895  -0.7062686807  0.0000000000
H  0.5492011427  -0.9482093904  0.8072922258
H  0.5492011427  -0.9482093904  -0.8072922258
O  -0.0070139783  0.7359568309  0.0000000000
H  -0.9434098175  0.9401926309  0.0000000000