5
charge=0, multiplicity=2, basis=def2-QZVPPD, AUX_BASIS_CORR=rimp2-def2-QZVPPD, SCF_ALGORITHM=GDM, xc_grid=000099000590, mem_total=3750, num_basis=255, num_pairs=32713, num_threads=1
C  0.0000000000  0.0000000000  -1.2011253943
H  0.0000000000  0.9360066134  -1.7364990774
H  0.0000000000  -0.9360066134  -1.7364990774
C  0.0000000000  0.0000000000  0.1906543519
N  0.0000000000  0.0000000000  1.3621051972