5
charge=0, multiplicity=1, basis=def2-QZVPPD, AUX_BASIS_CORR=rimp2-def2-QZVPPD, SCF_ALGORITHM=GDM, xc_grid=000099000590, mem_total=3750, num_basis=310, num_pairs=48060, num_threads=1
H  1.7386750000  0.1592020000  -0.5841630000
O  1.3479860000  -0.5764130000  -0.0868220000
Cl  -0.1695480000  0.0327680000  0.3361380000
O  -1.0739150000  -0.8676720000  -0.3101440000
O  -0.1311160000  1.3545530000  -0.2443080000