7
charge=0, multiplicity=1, basis=def2-QZVPPD, mem_total=3750, AUX_BASIS_CORR=rimp2-def2-QZVPPD, SCF_ALGORITHM=GDM, xc_grid=000099000590, num_basis=324, num_pairs=53097, num_threads=1
O  0.0000000000  0.0000000000  0.0000000000
C  0.0000000000  0.0000000000  1.4293376522
C  1.2577709619  0.0000000000  0.6789833071
H  -0.3449389784  -0.9194282207  1.8871692458
H  -0.3449389784  0.9194282207  1.8871692458
H  1.8245055547  -0.9194282207  0.5929335057
H  1.8245055547  0.9194282207  0.5929335057