6
charge=0, multiplicity=1, basis=def2-QZVPPD, AUX_BASIS_CORR=rimp2-def2-QZVPPD, SCF_ALGORITHM=GDM, xc_grid=000099000590, mem_total=3750, num_basis=409, num_pairs=80040, num_threads=1
Cl  0.0000000000  0.0000000000  -0.0888197240
F  0.0000000000  0.0000000000  1.5083826784
F  0.0000000000  1.6528067665  0.0376092614
F  -1.6528067665  0.0000000000  0.0376092614
F  0.0000000000  -1.6528067665  0.0376092614
F  1.6528067665  0.0000000000  0.0376092614