5
charge=0, multiplicity=1, basis=def2-QZVPPD, AUX_BASIS_CORR=rimp2-def2-QZVPPD, SCF_ALGORITHM=GDM, xc_grid=000099000590, mem_total=3750, num_basis=228, num_pairs=26522, num_threads=1
F  0.0000000000  0.0000000000  -0.6417885103
C  0.0000000000  0.0000000000  0.7379607823
H  1.0269085275  0.0000000000  1.1010277740
H  -0.5134542638  0.8893288722  1.1010277740
H  -0.5134542638  -0.8893288722  1.1010277740