8
charge=0, multiplicity=1, basis=def2-QZVPPD, AUX_BASIS_CORR=rimp2-def2-QZVPPD, SCF_ALGORITHM=GDM, xc_grid=000099000590, mem_total=3750, num_basis=416, num_pairs=85374, num_threads=1
C  0.0000000000  1.2391277788  0.0000000000
C  0.0000000000  -1.2391277788  0.0000000000
H  0.0000000000  1.8576436116  0.8941448195
H  0.0000000000  1.8576436116  -0.8941448195
H  0.0000000000  -1.8576436116  0.8941448195
H  0.0000000000  -1.8576436116  -0.8941448195
S  1.3440319955  0.0000000000  0.0000000000
S  -1.3440319955  0.0000000000  0.0000000000