3
charge=0, multiplicity=1, basis=def2-QZVPPD, AUX_BASIS_CORR=rimp2-def2-QZVPPD, SCF_ALGORITHM=GDM, xc_grid=000099000590, mem_total=3750, num_basis=237, num_pairs=28141, num_threads=1
S  0.0000000000  0.0000000000  0.0000000000
S  0.0000000000  0.0000000000  1.9198308000
S  1.7050794086  0.0000000000  -0.8823006919