3
charge=0, multiplicity=1, basis=def2-QZVPPD, AUX_BASIS_CORR=rimp2-def2-QZVPPD, SCF_ALGORITHM=GDM, xc_grid=000099000590, mem_total=3750, num_basis=221, num_pairs=24611, num_threads=1
C  0.0000000000  0.0000000000  0.0000000000
Cl  0.0000000000  0.0000000000  1.7182578700
Cl  1.6229007750  0.0000000000  -0.5644494507