5
charge=0, multiplicity=1, basis=def2-QZVPPD, AUX_BASIS_CORR=rimp2-def2-QZVPPD, SCF_ALGORITHM=GDM, xc_grid=000099000590, mem_total=3750, num_basis=261, num_pairs=34672, num_threads=1
C  0.0000000000  0.0000000000  0.7289335567
H  0.9254969623  0.0000000000  1.2984262043
H  -0.9254969623  0.0000000000  1.2984262043
O  0.0000000000  0.7571038536  -0.4323519827
O  0.0000000000  -0.7571038536  -0.4323519827