8
charge=0, multiplicity=2, basis=def2-QZVPPD, AUX_BASIS_CORR=rimp2-def2-QZVPPD, SCF_ALGORITHM=GDM, xc_grid=000099000590, mem_total=3750, num_basis=354, num_pairs=63146, num_threads=1
C  -0.0304716849  -0.3618675786  0.7669289745
C  -0.0304716849  -0.3618675786  -0.7669289745
C  0.1659149982  0.8775796948  0.0000000000
H  -0.9672714374  -0.5084146709  1.2918917791
H  0.8280575437  -0.8195019083  1.2437862765
H  -0.9672714374  -0.5084146709  -1.2918917791
H  0.8280575437  -0.8195019083  -1.2437862765
H  -0.3940297909  1.7987966406  0.0000000000