4
charge=0, multiplicity=1, basis=def2-QZVPPD, AUX_BASIS_CORR=rimp2-def2-QZVPPD, SCF_ALGORITHM=GDM, xc_grid=000099000590, mem_total=3750, num_basis=316, num_pairs=49413, num_threads=1
S  0.0000000000  0.0000000000  0.0000000000
S  0.0000000000  0.0000000000  1.9063433800
S  2.0670424151  0.0000000000  2.4487235062
S  3.0030264350  0.0000000000  0.7879769882