4
charge=0, multiplicity=1, basis=def2-QZVPPD, AUX_BASIS_CORR=rimp2-def2-QZVPPD, SCF_ALGORITHM=GDM, xc_grid=000099000590, mem_total=3750, num_basis=195, num_pairs=19474, num_threads=1
C  -0.1205802276  0.0000000000  -0.7378139374
H  0.9182637607  0.0000000000  -1.1360527973
O  0.0806746086  0.0000000000  0.5610401090
H  -0.7829374977  0.0000000000  0.9907223375