3
charge=0, multiplicity=2, basis=def2-QZVPPD, mem_total=3750, AUX_BASIS_CORR=rimp2-def2-QZVPPD, SCF_ALGORITHM=GDM, xc_grid=000200000974, num_basis=198, num_pairs=19903, num_threads=1
F  0.0000000000  0.0000000000  0.0000000000
O  0.0000000000  0.0000000000  1.6324013000
O  1.1134951237  0.0000000000  2.0577174953