3
charge=0, multiplicity=1, basis=def2-QZVPPD, AUX_BASIS_CORR=rimp2-def2-QZVPPD, SCF_ALGORITHM=GDM, xc_grid=000099000590, mem_total=3750, num_basis=178, num_pairs=16230, num_threads=1
O  0.0000000000  0.0000000000  0.0000000000
H  0.0000000000  0.0000000000  0.9638997500
Cl  1.6530447720  0.0000000000  -0.3711121967