4
charge=0, multiplicity=2, basis=def2-QZVPPD, AUX_BASIS_CORR=rimp2-def2-QZVPPD, SCF_ALGORITHM=GDM, xc_grid=000099000590, mem_total=3750, num_basis=277, num_pairs=38466, num_threads=1
Cl  0.0000000000  0.0000000000  0.2071320000
O  0.0000000000  1.4008200000  -0.1467190000
O  1.2131460000  -0.7004100000  -0.1467190000
O  -1.2131460000  -0.7004100000  -0.1467190000