6
charge=0, multiplicity=1, basis=def2-QZVPPD, AUX_BASIS_CORR=rimp2-def2-QZVPPD, SCF_ALGORITHM=GDM, xc_grid=000099000590, mem_total=3750, num_basis=261, num_pairs=34660, num_threads=1
C  -0.0479167327  0.6682939561  0.0000000000
H  -1.0907101856  0.9776732069  0.0000000000
H  0.4344161461  1.0815239129  0.8898543791
H  0.4344161461  1.0815239129  -0.8898543791
O  -0.0410920225  -0.7509554452  0.0000000000
H  0.8712936485  -1.0420305436  0.0000000000