5
charge=0, multiplicity=1, basis=def2-QZVPPD, AUX_BASIS_CORR=rimp2-def2-QZVPPD, SCF_ALGORITHM=GDM, xc_grid=000099000590, mem_total=3750, num_basis=274, num_pairs=37665, num_threads=1
C  0.0004737256  0.8055364941  0.0000000000
F  1.3591465902  0.7518613497  0.0000000000
H  -0.3373116848  1.3053987589  0.9025923043
Cl  -0.6754499465  -0.8307123618  0.0000000000
H  -0.3373116848  1.3053987589  -0.9025923043