5
charge=0, multiplicity=1, basis=def2-QZVPPD, AUX_BASIS_CORR=rimp2-def2-QZVPPD, SCF_ALGORITHM=GDM, xc_grid=000099000590, mem_total=3750, num_basis=340, num_pairs=56120, num_threads=1
F  0.0000000000  0.0000000000  0.0000000000
Si  0.0000000000  0.0000000000  1.5604300000
F  1.4711875128  0.0000000000  2.0805733333
F  -0.7355937564  1.2740857598  2.0805733333
F  -0.7355937564  -1.2740857598  2.0805733333