4
charge=0, multiplicity=1, basis=def2-QZVPPD, AUX_BASIS_CORR=rimp2-def2-QZVPPD, SCF_ALGORITHM=GDM, xc_grid=000099000590, mem_total=3750, num_basis=192, num_pairs=18890, num_threads=1
H  0.0000000000  0.0000000000  0.0000000000
N  0.0000000000  0.0000000000  1.0295390300
N  1.2006292783  0.0000000000  1.3751405999
H  1.2006292783  0.0000000000  2.4046796299