6
charge=0, multiplicity=1, basis=def2-QZVPPD, AUX_BASIS_CORR=rimp2-def2-QZVPPD, SCF_ALGORITHM=GDM, xc_grid=000099000590, mem_total=3750, num_basis=442, num_pairs=93257, num_threads=1
C  0.0000000000  0.0000000000  0.6724925653
C  0.0000000000  0.0000000000  -0.6724925653
Cl  0.0000000000  1.4494843272  1.5846665975
Cl  0.0000000000  1.4494843272  -1.5846665975
Cl  0.0000000000  -1.4494843272  -1.5846665975
Cl  0.0000000000  -1.4494843272  1.5846665975