6
charge=0, multiplicity=2, basis=def2-QZVPPD, AUX_BASIS_CORR=rimp2-def2-QZVPPD, SCF_ALGORITHM=GDM, xc_grid=000099000590, mem_total=3750, num_basis=258, num_pairs=33861, num_threads=1
C  -0.0242578700  0.7281271000  0.0000000000
H  -0.2935680200  1.2080528100  0.9288543400
H  -0.2935680200  1.2080528100  -0.9288543400
N  -0.0194271100  -0.6685563900  0.0000000000
H  0.3757935000  -1.0835881700  -0.8286859400
H  0.3757935000  -1.0835881700  0.8286859400