8
charge=0, multiplicity=1, basis=def2-QZVPPD, AUX_BASIS_CORR=rimp2-def2-QZVPPD, SCF_ALGORITHM=GDM, xc_grid=000099000590, mem_total=3750, num_basis=522, num_pairs=127669, num_threads=1
C  0.0000000000  0.0000000000  -0.7720868331
C  0.0000000000  0.0000000000  0.7720868331
F  1.2474977913  0.0000000000  -1.2198012860
F  -1.2474977913  0.0000000000  1.2198012860
F  -0.6237488959  -1.0803647785  -1.2198012860
F  -0.6237488959  1.0803647785  -1.2198012860
F  0.6237488959  -1.0803647785  1.2198012860
F  0.6237488959  1.0803647785  1.2198012860