4
charge=0, multiplicity=1, basis=def2-QZVPPD, AUX_BASIS_CORR=rimp2-def2-QZVPPD, SCF_ALGORITHM=GDM, xc_grid=000099000590, mem_total=3750, num_basis=195, num_pairs=19474, num_threads=1
C  0.1226264824  0.7402297233  0.0000000000
H  -0.9510904818  1.0574920865  0.0000000000
O  0.1264589995  -0.5727481261  0.0000000000
H  -0.7566200002  -0.9716896837  0.0000000000