4
charge=0, multiplicity=2, basis=def2-QZVPPD, AUX_BASIS_CORR=rimp2-def2-QZVPPD, SCF_ALGORITHM=GDM, xc_grid=000099000590, mem_total=3750, num_basis=231, num_pairs=26949, num_threads=1
O  0.0000000000  0.0000000000  0.0000000000
O  0.0000000000  0.0000000000  1.2280000000
O  1.4931777803  0.0000000000  1.7655770794
H  1.2803666545  0.0000000000  2.7098945180