4
charge=0, multiplicity=1, basis=def2-QZVPPD, mem_total=3750, AUX_BASIS_CORR=rimp2-def2-QZVPPD, SCF_ALGORITHM=GDM, xc_grid=000099000590, num_basis=222, num_pairs=25043, num_threads=1
H  0.0000000000  0.0000000000  0.0000000000
N  0.0000000000  0.0000000000  1.0169031506
N  1.1790605040  0.0000000000  1.4151935971
N  2.1882768869  0.0000000000  1.9291510793