4
charge=0, multiplicity=1, basis=def2-QZVPPD, AUX_BASIS_CORR=rimp2-def2-QZVPPD, SCF_ALGORITHM=GDM, xc_grid=000099000590, mem_total=3750, num_basis=238, num_pairs=28183, num_threads=1
Cl  0.0000000000  0.0000000000  -0.9564841886
C  0.0000000000  0.0000000000  0.6845061795
C  0.0000000000  0.0000000000  1.8908995350
H  0.0000000000  0.0000000000  2.9535844400