7
charge=0, multiplicity=1, basis=def2-QZVPPD, AUX_BASIS_CORR=rimp2-def2-QZVPPD, SCF_ALGORITHM=GDM, xc_grid=000099000590, mem_total=3750, num_basis=384, num_pairs=73598, num_threads=1
C  0.0000000000  0.7103702220  -0.8808039513
C  0.0000000000  -0.7103702220  -0.8808039513
O  0.0000000000  0.0000000000  1.1264898798
H  0.0000000000  1.4065824287  -1.7012730332
H  0.0000000000  -1.4065824287  -1.7012730332
N  0.0000000000  1.1306536532  0.3553585445
N  0.0000000000  -1.1306536532  0.3553585445