4
charge=0, multiplicity=1, basis=def2-QZVPPD, AUX_BASIS_CORR=rimp2-def2-QZVPPD, SCF_ALGORITHM=GDM, xc_grid=000099000590, mem_total=3750, num_basis=313, num_pairs=46926, num_threads=1
Al  0.0000000000  0.0000000000  0.0000000000
Cl  0.0000000000  0.0000000000  2.0709708900
Cl  1.7935134012  0.0000000000  -1.0354854450
Cl  -1.7935134012  0.0000000000  -1.0354854450