8
charge=0, multiplicity=1, basis=def2-QZVPPD, AUX_BASIS_CORR=rimp2-def2-QZVPPD, SCF_ALGORITHM=GDM, xc_grid=000099000590, mem_total=3750, num_basis=384, num_pairs=73926, num_threads=1
C  0.5232795897  0.5232795897  0.5232795897
C  -0.5232795897  -0.5232795897  0.5232795897
C  -0.5232795897  0.5232795897  -0.5232795897
C  0.5232795897  -0.5232795897  -0.5232795897
H  1.1401733394  1.1401733394  1.1401733394
H  -1.1401733394  -1.1401733394  1.1401733394
H  -1.1401733394  1.1401733394  -1.1401733394
H  1.1401733394  -1.1401733394  -1.1401733394