3
charge=0, multiplicity=1, basis=def2-QZVPPD, AUX_BASIS_CORR=rimp2-def2-QZVPPD, SCF_ALGORITHM=GDM, xc_grid=000099000590, mem_total=3750, num_basis=195, num_pairs=19393, num_threads=1
F  0.0000000000  0.1416613496  -1.0954204878
N  0.0000000000  -0.5118207938  0.2593665757
O  0.0000000000  0.2798593012  1.0736883924