6
charge=0, multiplicity=1, basis=def2-QZVPPD, AUX_BASIS_CORR=rimp2-def2-QZVPPD, SCF_ALGORITHM=GDM, xc_grid=000099000590, mem_total=3750, num_basis=416, num_pairs=82239, num_threads=1
C  0.0000000000  0.6676340625  0.4150034844
C  0.0000000000  -0.6676340625  0.4150034844
Cl  0.0000000000  1.6438288217  -0.9750685547
Cl  0.0000000000  -1.6438288217  -0.9750685547
F  0.0000000000  1.3316042279  1.5639760704
F  0.0000000000  -1.3316042279  1.5639760704