11
charge=0, multiplicity=1, basis=def2-QZVPPD, AUX_BASIS_CORR=rimp2-def2-QZVPPD, SCF_ALGORITHM=GDM, xc_grid=000099000590, mem_total=3750, num_basis=453, num_pairs=101324, num_threads=1
C  0.0000000000  1.2657900300  -0.2597840600
H  -0.8814813600  1.2987741700  -0.9040806300
H  0.8814813600  1.2987741700  -0.9040806300
H  0.0000000000  2.1664994600  0.3558059700
C  0.0000000000  0.0000000000  0.5929156700
H  0.8754922900  0.0000000000  1.2477400200
H  -0.8754922900  0.0000000000  1.2477400200
C  0.0000000000  -1.2657900300  -0.2597840600
H  0.8814813600  -1.2987741700  -0.9040806300
H  0.0000000000  -2.1664994600  0.3558059700
H  -0.8814813600  -1.2987741700  -0.9040806300