4
charge=0, multiplicity=1, basis=def2-QZVPPD, AUX_BASIS_CORR=rimp2-def2-QZVPPD, SCF_ALGORITHM=GDM, xc_grid=000099000590, mem_total=3750, num_basis=274, num_pairs=37398, num_threads=1
C  0.0030519039  0.5051306554  0.0000000000
O  -0.7959430261  1.3672029009  0.0000000000
F  1.3116501168  0.7061565175  0.0000000000
Cl  -0.3206169946  -1.1912890738  0.0000000000