7
charge=0, multiplicity=1, basis=def2-QZVPPD, AUX_BASIS_CORR=rimp2-def2-QZVPPD, SCF_ALGORITHM=GDM, xc_grid=000099000590, mem_total=3750, num_basis=321, num_pairs=51932, num_threads=1
C  0.0000000000  0.0000000000  0.8631379557
C  0.0000000000  0.6485924272  -0.5009727593
C  0.0000000000  -0.6485924272  -0.5009727593
H  0.0000000000  1.5783581573  -1.0393870564
H  0.0000000000  -1.5783581573  -1.0393870564
H  -0.9129297226  0.0000000000  1.4527178379
H  0.9129297226  0.0000000000  1.4527178379