11
charge=0, multiplicity=1, basis=def2-QZVPPD, AUX_BASIS_CORR=rimp2-def2-QZVPPD, SCF_ALGORITHM=GDM, xc_grid=000099000590, mem_total=3750, num_basis=513, num_pairs=129000, num_threads=1
C  0.0000000000  0.0000000000  1.2189015636
H  0.8785435837  0.0000000000  1.8731378695
H  -0.8785435837  0.0000000000  1.8731378695
C  0.0000000000  1.1775867249  0.2833207934
H  0.0000000000  2.2077775446  0.6075122945
C  0.0000000000  0.7351898659  -0.9918071177
H  0.0000000000  1.3507984914  -1.8800206214
C  0.0000000000  -1.1775867249  0.2833207934
H  0.0000000000  -2.2077775446  0.6075122945
C  0.0000000000  -0.7351898659  -0.9918071177
H  0.0000000000  -1.3507984914  -1.8800206214