3
charge=0, multiplicity=1, basis=def2-QZVPPD, AUX_BASIS_CORR=rimp2-def2-QZVPPD, SCF_ALGORITHM=GDM, xc_grid=000099000590, mem_total=3750, num_basis=162, num_pairs=13515, num_threads=1
N  0.0000000000  0.0000000000  0.0000000000
H  0.0000000000  0.0000000000  1.0535284100
O  1.1513717966  0.0000000000  -0.3743228181