5
charge=0, multiplicity=1, basis=def2-QZVPPD, AUX_BASIS_CORR=rimp2-def2-QZVPPD, SCF_ALGORITHM=GDM, xc_grid=000099000590, mem_total=3750, num_basis=327, num_pairs=53420, num_threads=1
F  0.0000000000  0.0000000000  0.0000000000
C  0.0000000000  0.0000000000  1.3179218600
F  1.2425486457  0.0000000000  1.7572291467
F  -0.6212743229  1.0760786926  1.7572291467
F  -0.6212743229  -1.0760786926  1.7572291467