6
charge=0, multiplicity=1, basis=def2-QZVPPD, AUX_BASIS_CORR=rimp2-def2-QZVPPD, SCF_ALGORITHM=GDM, xc_grid=000099000590, mem_total=3750, num_basis=291, num_pairs=42419, num_threads=1
C  0.0000000000  0.0000000000  0.0000000000
C  0.0000000000  0.0000000000  1.3252412709
H  0.9220997426  0.0000000000  -0.5623675156
H  -0.9442259082  0.0000000000  -0.5221417514
H  -0.8762494620  0.0000000000  1.9580177297
F  1.1400291213  0.0000000000  2.0347888977