6
charge=0, multiplicity=1, basis=def2-QZVPPD, AUX_BASIS_CORR=rimp2-def2-QZVPPD, SCF_ALGORITHM=GDM, xc_grid=000099000590, mem_total=3750, num_basis=304, num_pairs=46138, num_threads=1
C  0.0000000000  0.2966291979  -1.7286190751
C  0.0000000000  -0.5085018039  -0.6704308551
H  0.0000000000  1.3725122974  -1.6261979893
H  0.0000000000  -0.1339663586  -2.7204009721
H  0.0000000000  -1.5865144839  -0.7345935828
Cl  0.0000000000  0.0816724476  0.9572257898