8
charge=0, multiplicity=1, basis=def2-QZVPPD, AUX_BASIS_CORR=rimp2-def2-QZVPPD, SCF_ALGORITHM=GDM, xc_grid=000099000590, mem_total=3750, num_basis=350, num_pairs=58347, num_threads=1
Si  -0.0003313210  0.0000000000  -1.1708843053
H  -1.3904265497  0.0000000000  -1.6847319638
H  0.6949809430  1.2040454768  -1.6838904847
H  0.6949809430  -1.2040454768  -1.6838904847
Si  0.0003313210  0.0000000000  1.1708843053
H  1.3904265497  0.0000000000  1.6847319638
H  -0.6949809430  1.2040454768  1.6838904847
H  -0.6949809430  -1.2040454768  1.6838904847