4
charge=0, multiplicity=1, basis=def2-QZVPPD, AUX_BASIS_CORR=rimp2-def2-QZVPPD, SCF_ALGORITHM=GDM, xc_grid=000099000590, mem_total=3750, num_basis=228, num_pairs=26344, num_threads=1
B  0.0000000000  0.0000000000  0.2678856961
H  0.0000000000  0.0000000000  1.4532384884
F  0.0000000000  -1.1266425120  -0.4072335858
F  0.0000000000  1.1266425120  -0.4072335858