4
charge=0, multiplicity=1, basis=def2-QZVPPD, AUX_BASIS_CORR=rimp2-def2-QZVPPD, SCF_ALGORITHM=GDM, xc_grid=000099000590, mem_total=3750, num_basis=304, num_pairs=46308, num_threads=1
P  0.0000000000  0.0000000000  0.0000000000
P  0.0000000000  0.0000000000  2.1987494000
P  1.9041728370  0.0000000000  1.0993747000
P  0.6347242788  1.7952713675  1.0993747000