9
charge=0, multiplicity=1, basis=def2-QZVPPD, AUX_BASIS_CORR=rimp2-def2-QZVPPD, SCF_ALGORITHM=GDM, xc_grid=000099000590, mem_total=3750, num_basis=463, num_pairs=105098, num_threads=1
C  0.0000000000  1.2346859350  -0.0037741108
C  0.0000000000  0.7131155627  -1.2702426061
C  0.0000000000  -0.7131155627  -1.2702426061
C  0.0000000000  -1.2346859350  -0.0037741108
S  0.0000000000  0.0000000000  1.1887112084
H  0.0000000000  2.2721332446  0.2886650924
H  0.0000000000  1.3205649375  -2.1634904797
H  0.0000000000  -1.3205649375  -2.1634904797
H  0.0000000000  -2.2721332446  0.2886650924