8
charge=0, multiplicity=1, basis=def2-QZVPPD, AUX_BASIS_CORR=rimp2-def2-QZVPPD, SCF_ALGORITHM=GDM, xc_grid=000099000590, mem_total=3750, num_basis=324, num_pairs=52738, num_threads=1
B  -0.8788938588  0.0000000000  0.0000000000
B  0.8788938588  0.0000000000  0.0000000000
H  0.0000000000  0.0000000000  0.9752214687
H  0.0000000000  0.0000000000  -0.9752214687
H  -1.4523452926  1.0396591157  0.0000000000
H  -1.4523452926  -1.0396591157  0.0000000000
H  1.4523452926  -1.0396591157  0.0000000000
H  1.4523452926  1.0396591157  0.0000000000