4
charge=0, multiplicity=2, basis=def2-QZVPPD, AUX_BASIS_CORR=rimp2-def2-QZVPPD, SCF_ALGORITHM=GDM, xc_grid=000099000590, mem_total=3750, num_basis=195, num_pairs=19474, num_threads=1
O  -0.0028254588  -0.7318919999  0.0000000000
N  -0.0449006547  0.5427187816  0.0000000000
H  0.1017220568  1.0348341092  0.8712108022
H  0.1017220568  1.0348341092  -0.8712108022