4
charge=0, multiplicity=1, basis=def2-QZVPPD, AUX_BASIS_CORR=rimp2-def2-QZVPPD, SCF_ALGORITHM=GDM, xc_grid=000099000590, mem_total=3750, num_basis=264, num_pairs=34176, num_threads=1
F  0.0000000000  0.0000000000  0.0000000000
O  0.0000000000  0.0000000000  1.5322974100
O  1.1705852438  0.0000000000  1.9230280762
F  1.6506598353  1.4521083819  2.0170758648