3
charge=0, multiplicity=1, basis=def2-QZVPPD, AUX_BASIS_CORR=rimp2-def2-QZVPPD, SCF_ALGORITHM=GDM, xc_grid=000099000590, mem_total=3750, num_basis=208, num_pairs=21775, num_threads=1
Cl  0.0000000000  0.0591798781  -1.0439566306
N  0.0000000000  -0.5296837735  0.8378261577
O  0.0000000000  0.3325760649  1.5798226671