5
charge=0, multiplicity=1, basis=def2-QZVPPD, AUX_BASIS_CORR=rimp2-def2-QZVPPD, SCF_ALGORITHM=GDM, xc_grid=000099000590, mem_total=3750, num_basis=241, num_pairs=29482, num_threads=1
Cl  0.0000000000  0.0000000000  -0.5514016694
C  0.0000000000  0.0000000000  1.2312896872
H  1.0295252499  0.0000000000  1.5741092243
H  -0.5147626250  0.8915950203  1.5741092243
H  -0.5147626250  -0.8915950203  1.5741092243