7
charge=0, multiplicity=1, basis=def2-QZVPPD, AUX_BASIS_CORR=rimp2-def2-QZVPPD, SCF_ALGORITHM=GDM, xc_grid=000099000590, mem_total=3750, num_basis=390, num_pairs=72921, num_threads=1
O  0.0000000000  0.0000000000  0.3962289795
C  0.0000000000  1.1710886968  -0.3211771907
H  0.0000000000  1.0178114188  -1.4084096962
C  0.0000000000  -1.1710886968  -0.3211771907
H  0.0000000000  -1.0178114188  -1.4084096962
O  0.0000000000  -2.2307564184  0.2161903971
O  0.0000000000  2.2307564184  0.2161903971