24
charge=0, multiplicity=1, basis=def2-QZVPPD, AUX_BASIS_CORR=rimp2-def2-QZVPPD, SCF_ALGORITHM=GDM, xc_grid=000099000590, mem_total=15000, num_basis=1056, num_pairs=419953, num_threads=4
O  -1.2924524168  1.9431424385  1.2226498102
O  0.0000000000  0.0000000000  2.1910182144
O  2.3290369233  0.1477254069  1.2226498102
O  -1.0365845065  -2.0908678454  1.2226498102
O  -0.1173738083  -2.3666397915  -1.1811466478
O  0.0000000000  0.0000000000  -2.1281501558
O  2.1082570852  1.0816711960  -1.1811466478
O  -1.9908832769  1.2849685954  -1.1811466478
H  -1.6121333242  1.7108042155  0.2902261466
H  -2.0329922079  2.3268090177  1.6977145929
H  -2.7471838514  0.6969876712  -1.2446979978
H  -0.9985796151  -2.9240274066  1.6977145929
H  -0.6755332494  -2.2515505208  0.2902261466
H  -1.2036468813  0.7746315763  -1.6091001063
H  -0.5575433840  0.7906310599  1.8329417088
H  -0.4059348909  -0.8781622642  1.8329417088
H  1.9772009550  2.0306371686  -1.2446979978
H  -0.0690271830  -1.4297045645  -1.6091001063
H  0.9634782749  0.0875312043  1.8329417088
H  0.7699828963  -2.7276248397  -1.2446979978
H  0.0000000000  0.0000000000  -3.0886305782
H  1.2726740643  0.6550729882  -1.6091001063
H  3.0315718230  0.5972183889  1.6977145929
H  2.2876665737  0.5407463053  0.2902261466