14
charge=-1, multiplicity=1, basis=def2-QZVPPD, AUX_BASIS_CORR=rimp2-def2-QZVPPD, SCF_ALGORITHM=GDM, xc_grid=000099000590, mem_total=3750, num_basis=627, num_pairs=178514, num_threads=1
O  0.7941269074  -0.1580495020  2.0660394625
O  -0.0265990026  -1.4686255805  0.0000000000
H  0.8535437291  1.3175681497  0.7632695265
H  -0.0492091726  0.0556878845  2.4738563680
O  0.7060196535  1.9061094238  0.0000000000
H  0.8535437291  1.3175681497  -0.7632695265
O  0.7941269074  -0.1580495020  -2.0660394625
H  -0.0492091726  0.0556878845  -2.4738563680
H  0.5253029341  -0.7667811257  -1.2898742499
O  -2.0377302956  0.3905887973  0.0000000000
H  -1.3911533778  1.1099929499  0.0000000000
H  -1.4545848412  -0.4079553458  0.0000000000
H  0.5253029341  -0.7667811257  1.2898742499
H  -0.0434809322  -2.4269610579  0.0000000000