24
charge=0, multiplicity=1, basis=def2-QZVPPD, mem_total=15000, AUX_BASIS_CORR=rimp2-def2-QZVPPD, SCF_ALGORITHM=GDM, xc_grid=000099000590, num_basis=1056, num_pairs=440534, num_threads=4
O  1.9905912271  -0.1084003231  -1.4652292120
H  1.3302928581  -0.8467868443  -1.5304519739
H  2.7035396975  -0.3103451989  -2.0762401595
O  -0.1084003231  -1.9905912271  1.4652292120
H  -0.3103451989  -2.7035396975  2.0762401595
H  -0.8467868443  -1.3302928581  1.5304519739
O  -1.9387533556  -0.0255756307  1.4016093302
H  -2.1724668023  0.0263608008  0.4583695031
H  -1.3988241201  0.7670442020  1.5644648549
O  0.0255756307  -1.9387533556  -1.4016093302
H  -0.0263608008  -2.1724668023  -0.4583695031
H  -0.7670442020  -1.3988241201  -1.5644648549
O  -0.0255756307  1.9387533556  -1.4016093302
H  0.7670442020  1.3988241201  -1.5644648549
H  0.0263608008  2.1724668023  -0.4583695031
O  0.1084003231  1.9905912271  1.4652292120
H  0.8467868443  1.3302928581  1.5304519739
H  0.3103451989  2.7035396975  2.0762401595
O  -1.9905912271  0.1084003231  -1.4652292120
H  -1.3302928581  0.8467868443  -1.5304519739
H  -2.7035396975  0.3103451989  -2.0762401595
O  1.9387533556  0.0255756307  1.4016093302
H  2.1724668023  -0.0263608008  0.4583695031
H  1.3988241201  -0.7670442020  1.5644648549