18
charge=0, multiplicity=1, basis=def2-QZVPPD, mem_total=7500, AUX_BASIS_CORR=rimp2-def2-QZVPPD, SCF_ALGORITHM=GDM, xc_grid=000099000590, num_basis=792, num_pairs=266362, num_threads=2
O  1.4282581459  -0.4003671565  1.4106585421
H  0.4962869292  -0.7311723360  1.5266043854
H  1.9346615805  -0.7027163151  2.1682761238
O  0.7372918761  1.9893173120  -0.0695131903
H  1.0637087755  1.4457977164  0.6652451207
H  1.0989464565  1.5385981291  -0.8448107825
O  1.6255510416  -0.5260892301  -1.3633322474
H  2.3546168025  -0.9528444723  -1.8202671205
H  1.7656467356  -0.6667515741  -0.4068662600
O  -1.9174628000  1.2454847707  -0.0758847305
H  -1.0195283142  1.6453399022  -0.0861304508
H  -2.5435508079  1.9684755314  -0.1615431930
O  -1.2037871795  -1.3111993726  -1.3774110878
H  -0.2717808128  -1.1292498974  -1.5755795035
H  -1.6090142511  -0.4363975075  -1.2823356251
O  -1.1315777674  -1.1588986682  1.4243136325
H  -1.1917048692  -1.4941892478  0.5062038162
H  -1.6165615413  -0.3231375843  1.3623725707