20
charge=-1, multiplicity=1, basis=def2-QZVPPD, AUX_BASIS_CORR=rimp2-def2-QZVPPD, SCF_ALGORITHM=GDM, xc_grid=000099000590, mem_total=15000, num_basis=891, num_pairs=334451, num_threads=4
O  0.2309965786  -1.7501604302  -1.6137319608
H  0.3547704222  -1.4268652709  -2.5095199464
H  -0.4863599319  -1.1511869530  -1.2247680196
O  -0.8187277315  -1.8096257919  1.5257335092
H  -0.3247737573  -2.4623294406  1.0212858348
H  -1.1694889815  -1.1908734741  0.8176224589
O  -0.9356309848  2.0631219891  1.0559169358
H  -1.2826168648  1.2542291359  0.5973567626
H  -0.4402953606  2.4787495611  0.3372992852
O  1.0346387417  0.3062361788  2.1888665282
H  0.4723616255  -0.4881286740  2.1220178463
H  0.4232867841  1.0226881493  1.9283642108
O  0.2656542696  1.7374372698  -1.6823817927
H  1.0715577127  1.3171857178  -1.3358043528
H  -0.4373017205  1.1167995620  -1.3960602945
O  2.2703739871  -0.0203257806  -0.4001794760
H  1.9574444081  0.1070627431  0.5173217003
H  1.6919801605  -0.7185752706  -0.7539803461
O  -1.4854287106  -0.1445915441  -0.4478202573
H  -2.3924406466  -0.2408476769  -0.7475386259