7
charge=1, multiplicity=1, basis=def2-QZVPPD, AUX_BASIS_CORR=rimp2-def2-QZVPPD, SCF_ALGORITHM=GDM, xc_grid=000099000590, mem_total=3750, num_basis=297, num_pairs=43221, num_threads=1
O  -1.1997281948  0.0290201031  0.1157470540
H  -1.6314242393  -0.7333199762  0.5284064948
H  -1.6940018670  0.2956236572  -0.6724225323
O  1.1997281948  -0.0290201031  0.1157470540
H  0.0000000000  0.0000000000  0.0565379670
H  1.6940018670  -0.2956236572  -0.6724225323
H  1.6314242393  0.7333199762  0.5284064948