17
charge=-1, multiplicity=1, basis=def2-QZVPPD, AUX_BASIS_CORR=rimp2-def2-QZVPPD, SCF_ALGORITHM=GDM, xc_grid=000099000590, mem_total=7500, num_basis=759, num_pairs=251819, num_threads=2
H  1.5012775471  -0.3881987170  -0.0687442996
H  0.0695449861  -2.0031451533  -0.0936974203
H  -1.2974870131  -0.3758535067  0.3207360115
O  0.0939922568  1.9749664707  -1.1702309712
O  1.9370205596  -0.2434579629  -0.9535726350
O  -0.1555232103  -2.5134462179  -0.9107403438
O  -1.9616925021  -0.0600196576  -0.3289319371
H  0.7757186264  1.2824186509  -1.2650483739
H  1.5614875589  -0.9722491138  -1.4627697296
H  -0.9487013931  -2.0487144846  -1.2036386922
H  -1.4718232781  0.6336937823  -0.7997962806
O  0.3330052637  -0.7184359265  1.1400861550
H  0.5549234100  -1.1890187800  1.9465595481
O  -0.1124112991  1.8190879063  1.7342149621
H  0.0845175565  2.1340985053  -0.2091615836
H  -1.0736008967  1.8225901464  1.7483155525
H  0.1097518273  0.8456840584  1.5764200375