22
charge=1, multiplicity=1, basis=def2-QZVPPD, AUX_BASIS_CORR=rimp2-def2-QZVPPD, SCF_ALGORITHM=GDM, xc_grid=000099000590, mem_total=15000, num_basis=957, num_pairs=352960, num_threads=4
O  -0.8017039620  -2.1786144221  1.1619205331
H  -0.9501754356  -2.0789804322  0.2031405535
H  -1.4859153892  -2.7513028944  1.5209002069
O  1.6520558112  0.0477158709  -1.5591327095
H  2.3313222662  0.0194460173  -2.2418056969
H  1.0863703596  -0.7331799111  -1.6915753798
O  -0.7847047492  -1.4545802364  -1.5591327095
H  -1.1488203881  -2.0287073156  -2.2418056969
H  -1.1781376084  -0.5742343738  -1.6915753798
O  2.2875874156  0.3950112137  1.1619205331
H  2.2755375861  0.2166141508  0.2031405535
H  3.1256558947  0.0888109723  1.5209002069
O  -1.4858834536  1.7836032084  1.1619205331
H  -1.6397405054  2.6624919221  1.5209002069
H  -1.3253621505  1.8623662814  0.2031405535
O  -0.8673510620  1.4068643655  -1.5591327095
H  -1.1825018781  2.0092612983  -2.2418056969
H  0.0917672487  1.3074142849  -1.6915753798
O  0.0000000000  0.0000000000  2.2211453138
H  -0.3618310180  -0.8848668754  1.8661707214
H  0.9472327020  0.1290785842  1.8661707214
H  -0.5854016841  0.7557882911  1.8661707214