13
charge=1, multiplicity=1, basis=def2-QZVPPD, AUX_BASIS_CORR=rimp2-def2-QZVPPD, SCF_ALGORITHM=GDM, xc_grid=000099000590, mem_total=3750, num_basis=561, num_pairs=126250, num_threads=1
O  0.4488552560  2.4506611369  -0.1128380239
H  0.5365644916  3.1082365947  0.5858367217
H  0.9587367653  2.7678609651  -0.8657250366
O  -2.3467624286  -0.8366105142  -0.1128380239
H  -2.8764062926  -0.5536400883  -0.8657250366
H  -2.9600940977  -1.0894398169  0.5858367217
O  1.8979071727  -1.6140506228  -0.1128380239
H  2.4235296062  -2.0187967778  0.5858367217
H  1.9176695273  -2.2142208768  -0.8657250366
O  0.0000000000  0.0000000000  0.4980372263
H  0.7206738241  -0.6586452218  0.2267139300
H  0.2100665821  0.9534444504  0.2267139300
H  -0.9307404062  -0.2947992287  0.2267139300