9
charge=0, multiplicity=1, basis=def2-QZVPPD, AUX_BASIS_CORR=rimp2-def2-QZVPPD, SCF_ALGORITHM=GDM, xc_grid=000099000590, mem_total=3750, num_basis=396, num_pairs=73913, num_threads=1
O  1.1847029695  1.1150792997  -0.0344640532
H  0.4939088397  0.9563767252  0.6340089160
H  2.0242677736  1.0811246588  0.4301416901
O  -1.1469444273  0.0697648898  1.1470197207
H  -1.2798308611  -0.5232169172  1.8902834920
H  -1.0641399149  -0.4956693864  0.3569250580
O  -0.1633507891  -1.0289346817  -1.2401808578
H  0.4914771596  -0.3248733315  -1.0784838931
H  -0.5400907499  -0.8496512566  -2.1052500726