18
charge=0, multiplicity=1, basis=def2-QZVPPD, mem_total=7500, AUX_BASIS_CORR=rimp2-def2-QZVPPD, SCF_ALGORITHM=GDM, xc_grid=000099000590, num_basis=792, num_pairs=227880, num_threads=2
O  1.8630163463  1.9699096848  0.1190793817
H  0.9056975063  2.1787085832  0.0238760416
H  2.1523046726  2.4204190076  0.9160640981
O  0.7744836571  -2.5983743259  0.1190793817
H  1.0199920121  -3.0741600269  0.9160640981
H  1.4339682273  -1.8737113402  0.0238760416
O  2.6375000034  -0.6284646411  -0.1190793817
H  2.3396657336  0.3049972430  -0.0238760416
H  3.1722966847  -0.6537410193  -0.9160640981
O  -1.8630163463  -1.9699096848  -0.1190793817
H  -2.1523046726  -2.4204190076  -0.9160640981
H  -0.9056975063  -2.1787085832  -0.0238760416
O  -0.7744836571  2.5983743259  -0.1190793817
H  -1.0199920121  3.0741600269  -0.9160640981
H  -1.4339682273  1.8737113402  -0.0238760416
O  -2.6375000034  0.6284646411  0.1190793817
H  -3.1722966847  0.6537410193  0.9160640981
H  -2.3396657336  -0.3049972430  0.0238760416