8
charge=-1, multiplicity=1, basis=def2-QZVPPD, AUX_BASIS_CORR=rimp2-def2-QZVPPD, SCF_ALGORITHM=GDM, xc_grid=000099000590, mem_total=3750, num_basis=363, num_pairs=58710, num_threads=1
H  -1.4579587893  0.0040843238  0.0244593696
O  -2.4291205930  0.0733054637  -0.3263151041
H  0.0000000000  0.0000000000  1.4813683816
H  -2.4564988187  0.9567437109  -0.6994170408
O  0.0000000000  0.0000000000  0.5211771692
H  1.4579587893  -0.0040843238  0.0244593696
O  2.4291205930  -0.0733054637  -0.3263151041
H  2.4564988187  -0.9567437109  -0.6994170408