18
charge=0, multiplicity=1, basis=def2-QZVPPD, AUX_BASIS_CORR=rimp2-def2-QZVPPD, SCF_ALGORITHM=GDM, xc_grid=000099000590, mem_total=7500, num_basis=792, num_pairs=260685, num_threads=2
O  -2.1262431221  0.9197498630  1.8264959740
H  -2.1881223738  1.4620147286  2.6158478267
H  -1.5986358769  1.4265183176  1.1737717353
O  -0.6242004390  -1.3533166721  1.1757103554
H  -1.1988055355  -0.6794287828  1.5877760172
H  0.2729832767  -0.9963075319  1.2645232179
O  1.8287625713  0.1754817217  0.6422639101
H  2.0392500573  -0.2029455192  -0.2401564652
H  2.6632514152  0.2979341452  1.1013750132
O  -0.8422995353  -0.8438539775  -1.4490439899
H  -1.5454763654  -1.3161821211  -1.9016516028
H  -0.8613424058  -1.1366364759  -0.4986366726
O  -0.4537151641  1.8328265292  -0.1915392338
H  -0.7281657820  1.1638105500  -0.8364546723
H  0.4013688704  1.5054304898  0.1303423154
O  1.8922044131  -0.9099855094  -1.8706973820
H  2.1537552306  -0.3720141940  -2.6222494235
H  0.9154307651  -0.9730955612  -1.9076769230