60
charge=0, multiplicity=1, basis=def2-QZVPPD, mem_total=240000, AUX_BASIS_CORR=rimp2-def2-QZVPPD, SCF_ALGORITHM=GDM, xc_grid=000099000590, num_basis=2640, num_pairs=1822000, num_threads=64
O  1.5972953718  3.6342932047  0.1165628050
O  3.4570033751  1.5457807848  0.8715045066
O  -0.5742400405  3.4889563105  1.7956376631
O  0.6295601940  2.9030993037  -2.4803290194
O  2.5628872095  0.2380422873  2.9758017570
O  -0.0061253842  1.3030905378  3.6250689756
O  3.6694760312  -0.1920224450  -1.2507983842
O  -2.6588178002  2.7244508086  0.3711345723
O  1.9365180715  0.5910602374  -3.3888089355
O  -1.9819527408  2.4899266119  -2.3389978954
O  2.0356644143  -2.4018165983  2.1787275741
O  -1.8845793780  -0.6687213487  3.2997578163
O  2.7932150661  -2.7984189297  -0.3020457770
O  -3.7135040104  0.2090327465  1.2262852868
O  0.1062725490  -1.2932810966  -3.6485739729
O  -2.3812959623  -0.2589935869  -3.0530729558
O  -0.7279685149  -2.9024553427  2.5515926148
O  0.5941514530  -3.4611532487  -1.7841291595
O  -3.4834251039  -1.6651539672  -0.7602100301
O  -1.6647965117  -3.4265590277  -0.0388992594
H  0.8366572500  3.6498003251  0.7406949729
H  1.9869747630  4.5126509999  0.1363602556
H  2.8531584478  2.2552478751  0.5991012188
H  3.5564430079  0.9528664078  0.0924970543
H  -0.8603460787  4.2574736325  2.2971152375
H  -1.3676155832  3.1980614922  1.2597142478
H  1.0058173048  3.1354293504  -1.6140349646
H  1.1176189580  2.1179310412  -2.7977874685
H  3.2218854484  0.3339645001  3.6687598168
H  2.9173111996  0.7362370816  2.1825884342
H  0.8868802414  0.9703911183  3.4227384698
H  -0.1583774885  2.0479995392  3.0212476483
H  3.3730833127  -1.0735747803  -0.9715291162
H  3.1050899550  0.0539959720  -2.0051351058
H  -2.4656563747  2.6610553068  -0.5848248251
H  -3.0302261709  1.8642238639  0.6349499899
H  1.2448938417  -0.1226649230  -3.5032298187
H  2.3685948739  0.6844400901  -4.2421887299
H  -2.3988058028  3.1036188795  -2.9499346629
H  -0.9990854326  2.6509610565  -2.4091563874
H  1.0894131172  -2.5673535131  2.3485272590
H  2.2199555396  -1.4937765723  2.4901054830
H  -2.5067143759  -0.3437261694  2.6291956270
H  -1.2285822392  0.0523332820  3.4406627603
H  3.5521663678  -3.3866117966  -0.2562954457
H  2.5019633177  -2.6479145654  0.6464344002
H  -4.6222888465  0.2638838381  1.5345725157
H  -3.6996259100  -0.4725780830  0.5153993164
H  0.2511879832  -2.0333039978  -3.0373172354
H  -0.7962965068  -0.9523112068  -3.4593253675
H  -2.2861387795  0.6788768800  -2.8115618789
H  -2.7753979436  -0.6983972095  -2.2822632538
H  -0.9190239603  -3.5594962515  3.2264947342
H  -1.1717496676  -2.0542603484  2.8528847734
H  0.7227644567  -4.3091099830  -2.2179803619
H  1.4210062567  -3.2760640834  -1.2803667450
H  -4.2486675458  -2.1741635618  -1.0420467282
H  -2.7907221840  -2.3358782765  -0.4884945023
H  -0.8844205794  -3.4528627385  -0.6209771661
H  -1.3284624621  -3.2865517137  0.8681973666