7
charge=0, multiplicity=1, basis=def2-QZVPPD, AUX_BASIS_CORR=rimp2-def2-QZVPPD, SCF_ALGORITHM=GDM, xc_grid=000099000590, mem_total=3750, num_basis=291, num_pairs=42987, num_threads=1
N  0.0420694360  0.0370976220  2.5727062620
H  0.9968839040  0.0696986640  2.9051867040
C  -0.6337585650  -1.1567018650  3.0970420720
H  -1.6566258570  -1.1706053770  2.7315281120
H  -0.1347485930  -2.0411040970  2.7112216100
H  -0.6517586280  -1.2135652170  4.1858660680
H  -0.4070311460  0.8726936200  2.9238494100