11
charge=0, multiplicity=1, basis=def2-QZVPPD, AUX_BASIS_CORR=rimp2-def2-QZVPPD, SCF_ALGORITHM=GDM, xc_grid=000099000590, mem_total=3750, num_basis=489, num_pairs=106071, num_threads=1
H  0.8551713350  -0.0000081190  -0.5887862610
O  0.2715460700  0.0000163570  0.1755925080
C  1.0840504480  0.0000018070  1.3352519900
H  0.4178316080  -0.0000024860  2.1929847640
H  1.7184895660  -0.8863129460  1.3980355250
H  1.7184985540  0.8863092360  1.3980504110
F  1.0785685220  0.0000020470  -2.2169311150
C  -0.2319259650  -0.0000036050  -2.6807707010
H  -0.2142172130  -0.0000039610  -3.7663329820
H  -0.7333866980  -0.8885822230  -2.3100919220
H  -0.7333937510  0.8885711860  -2.3100923470