9
charge=0, multiplicity=1, basis=def2-QZVPPD, AUX_BASIS_CORR=rimp2-def2-QZVPPD, SCF_ALGORITHM=GDM, xc_grid=000099000590, mem_total=3750, num_basis=448, num_pairs=81914, num_threads=1
C  -0.0955012800  -0.0911330310  -0.1413157050
I  1.8303958800  0.3969778390  0.6151652030
H  -0.1793977140  -1.1699116890  -0.1843364220
H  -0.8362898410  0.3238411640  0.5308545840
H  -0.1912595880  0.3407719520  -1.1297572700
O  4.8399300700  0.8280799860  1.2951285950
C  5.4158115480  0.2375565180  0.4075104560
H  6.5139249820  0.1977180870  0.3568817970
H  4.8672959400  -0.2863600200  -0.3893521940