8
charge=0, multiplicity=1, basis=def2-QZVPPD, AUX_BASIS_CORR=rimp2-def2-QZVPPD, SCF_ALGORITHM=GDM, xc_grid=000099000590, mem_total=3750, num_basis=392, num_pairs=64587, num_threads=1
Br  0.4307590460  -0.0001152150  -0.1079456070
H  0.0177504100  -0.0000138110  1.2599673530
O  -0.3920080300  0.0002794390  4.0653305030
H  -1.1836686650  0.0000562940  4.6081982040
C  0.7455392880  0.0001222100  4.9216655030
H  1.6188512620  0.0001951360  4.2771995170
H  0.7785616090  0.8890120030  5.5508858780
H  0.7785213860  -0.8889495150  5.5506297500