8
charge=0, multiplicity=1, basis=def2-QZVPPD, AUX_BASIS_CORR=rimp2-def2-QZVPPD, SCF_ALGORITHM=GDM, xc_grid=000099000590, mem_total=3750, num_basis=360, num_pairs=62074, num_threads=1
F  0.3247382310  -0.0000961720  0.3675132430
H  0.1063565990  -0.0000156060  1.2745355950
O  -0.1449041370  0.0001324020  2.8068737750
H  -0.9886376970  -0.0000530390  3.2628426000
C  0.9043267840  0.0000056660  3.7706009840
H  1.8357167770  0.0000466830  3.2148757100
H  0.8718571580  0.8891556550  4.3984259350
H  0.8718265680  -0.8892741990  4.3982402550