10
charge=0, multiplicity=1, basis=def2-QZVPPD, AUX_BASIS_CORR=rimp2-def2-QZVPPD, SCF_ALGORITHM=GDM, xc_grid=000099000590, mem_total=3750, num_basis=482, num_pairs=93289, num_threads=1
C  0.3011521140  -0.1731180990  2.7644804350
Cl  -0.0248708340  -0.0775821320  1.0171611270
H  1.2475022520  0.3146026230  2.9646547080
H  0.3461311510  -1.2174421260  3.0488361430
H  -0.5017090160  0.3281855310  3.2913451520
C  -0.2282357270  0.1326046760  -2.1269027510
Cl  -0.4108922930  0.2520184420  -3.8934156860
H  -1.0772360830  -0.4090839040  -1.7273229090
H  0.6915580480  -0.3965097580  -1.9086451800
H  -0.1928090570  1.1335803290  -1.7140140910