24
charge=0, multiplicity=1, basis=def2-QZVPPD, AUX_BASIS_CORR=rimp2-def2-QZVPPD, SCF_ALGORITHM=GDM, xc_grid=000099000590, mem_total=60000, num_basis=1350, num_pairs=725006, num_threads=16
F  -2.2683284680  -1.9582028890  -0.3230250920
F  -2.7036905850  0.7255503830  -0.2531190400
C  0.0399704160  -1.6206490620  0.0006275290
C  -1.2467145680  -1.1223314570  -0.1581889560
C  -1.4689606320  0.2482816160  -0.1234482230
C  -0.4048431760  1.1201107250  0.0683217880
C  0.8828691600  0.6223035530  0.2232399940
C  1.1041642810  -0.7488420520  0.1922459860
F  -0.6201577410  2.4307327220  0.1130601070
F  1.9012322880  1.4564241700  0.3993774830
F  0.2508215280  -2.9338364850  -0.0101691250
F  2.3332238550  -1.2273905820  0.3547826790
H  -1.7206076180  -1.3125538490  3.2059852400
H  -2.1184624150  1.1320831360  3.2216776460
C  0.4081360870  -1.1254631400  3.4476450400
C  -0.8883556030  -0.6295204780  3.3129603970
C  -1.1125324550  0.7469135380  3.3236612350
C  -0.0407598120  1.6269594280  3.4704861110
C  1.2550291530  1.1306174860  3.6057110830
C  1.4797665750  -0.2452686810  3.5943497860
H  -0.2149921260  2.6942836630  3.4782411180
H  2.0862407100  1.8131105750  3.7172910180
H  0.5822889290  -2.1932591040  3.4415598490
H  2.4850383980  -0.6302683170  3.6979660290