9
charge=0, multiplicity=1, basis=def2-QZVPPD, AUX_BASIS_CORR=rimp2-def2-QZVPPD, SCF_ALGORITHM=GDM, xc_grid=000099000590, mem_total=3750, num_basis=547, num_pairs=106925, num_threads=1
C  -0.0822180200  -0.0615587410  -0.1068084800
I  1.9012257520  0.3992126230  0.5321887620
F  -0.2500223080  -1.3778957210  -0.2140575620
F  -0.9778808610  0.4006862850  0.7617156530
F  -0.3351973520  0.4853823280  -1.2937889950
O  6.3950805210  1.0757846200  1.5169835670
C  7.1423670300  0.4738838350  0.7755014830
H  8.2339107290  0.5351110350  0.8842149570
H  6.7628879730  -0.1602305770  -0.0389958380