8
charge=0, multiplicity=1, basis=def2-QZVPPD, AUX_BASIS_CORR=rimp2-def2-QZVPPD, SCF_ALGORITHM=GDM, xc_grid=000099000590, mem_total=3750, num_basis=392, num_pairs=69895, num_threads=1
Br  0.4307590460  -0.0001152150  -0.1079456070
H  0.0177504100  -0.0000138110  1.2599673530
O  -0.2554122480  0.0001816820  3.1301434860
H  -1.0470728830  -0.0000414630  3.6730111870
C  0.8821350700  0.0000244530  3.9864784860
H  1.7554470440  0.0000973790  3.3420125000
H  0.9151573910  0.8889142460  4.6156988610
H  0.9151171680  -0.8890472720  4.6154427330