9
charge=0, multiplicity=1, basis=def2-QZVPPD, AUX_BASIS_CORR=rimp2-def2-QZVPPD, SCF_ALGORITHM=GDM, xc_grid=000099000590, mem_total=3750, num_basis=535, num_pairs=117856, num_threads=1
C  0.2280873680  -0.0060273080  -0.1035120240
Cl  1.8088844520  0.6328066870  0.2914649940
F  0.3319593170  -1.2501325040  -0.5554963970
F  -0.5511677780  -0.0133394500  0.9694462080
F  -0.3509218150  0.7333357570  -1.0396515300
O  4.1947073060  1.0966399350  0.7033289860
C  4.7425375890  0.0660552500  0.3790443610
H  5.8334897220  -0.0561167450  0.4443313750
H  4.1751742890  -0.7987199060  0.0031009030