22
charge=0, multiplicity=1, basis=def2-QZVPPD, AUX_BASIS_CORR=rimp2-def2-QZVPPD, SCF_ALGORITHM=GDM, xc_grid=000099000590, mem_total=15000, num_basis=1094, num_pairs=405312, num_threads=4
C  1.2171198000  0.0000863520  -0.7372925310
C  2.2326878590  0.0001747170  0.2164999790
C  1.9252100870  0.0001301090  1.5754994530
C  0.5925121320  0.0001781320  1.9819578640
C  -0.4330491940  0.0000702500  1.0387667950
H  1.4483020070  -0.0000203180  -1.7927853600
H  3.2646334320  0.0001024320  -0.1070522770
H  2.7170939740  -0.0000231510  2.3112390590
H  0.3457074980  0.0001095070  3.0349333330
H  -1.4685014560  -0.0000932070  1.3475749700
C  -0.1110817250  -0.0001087360  -0.3168108440
Br  -1.4937559730  -0.0017477630  -1.6064628020
O  -3.7194270300  0.0007921090  -3.5833431050
C  -4.8768940600  0.0303978710  -3.2042497440
C  -5.2026679430  0.0306883080  -1.7265838790
C  -6.0092032100  0.0674955280  -4.2078256610
H  -5.8838151300  0.9440403510  -4.8410555400
H  -5.9323935150  -0.8073761660  -4.8510492940
H  -6.9906905540  0.0920535800  -3.7452354740
H  -6.2687630760  0.0588054160  -1.5247795050
H  -4.7686822940  -0.8590311660  -1.2733366240
H  -4.7205208190  0.8898069660  -1.2630985310