4
charge=0, multiplicity=1, basis=def2-QZVPPD, AUX_BASIS_CORR=rimp2-def2-QZVPPD, SCF_ALGORITHM=GDM, xc_grid=000099000590, mem_total=3750, num_basis=195, num_pairs=19475, num_threads=1
O  4.2463795730  0.7582093900  1.2058819190
C  4.7157811580  0.1522927720  0.2680503190
H  5.8029017060  0.0568177770  0.1255968200
H  4.0774380100  -0.3314424810  -0.4859849090