10
charge=0, multiplicity=1, basis=def2-QZVPPD, AUX_BASIS_CORR=rimp2-def2-QZVPPD, SCF_ALGORITHM=GDM, xc_grid=000099000590, mem_total=3750, num_basis=489, num_pairs=111507, num_threads=1
C  0.0000234110  0.0001057590  2.0532857350
F  -1.0825267150  0.6253399040  1.5898169680
F  1.0826276820  0.6252377640  1.5899222490
F  -0.0000238600  -1.2498202250  1.5892647530
H  -0.0000419600  -0.0002800620  3.1380920740
C  -0.0000052090  -0.0000390610  -1.2546306140
H  0.0000012430  0.0001495110  -2.3401585440
H  -0.8856536800  -0.5115570710  -0.8913504930
H  0.8857323680  -0.5114020440  -0.8913401200
H  -0.0000965850  1.0225943890  -0.8910645830