9
charge=0, multiplicity=1, basis=def2-QZVPPD, AUX_BASIS_CORR=rimp2-def2-QZVPPD, SCF_ALGORITHM=GDM, xc_grid=000099000590, mem_total=3750, num_basis=436, num_pairs=79934, num_threads=1
C  0.1798103490  -0.0771975520  -0.1180246400
Cl  1.7226794790  0.3990312470  0.6280761000
H  0.1303606990  -1.1590760020  -0.1550965130
H  -0.6304771910  0.3143387390  0.4855070400
H  0.1349591640  0.3357481790  -1.1188879990
O  4.6528106730  0.8400217560  1.3314754430
C  4.9497653460  0.2014800330  0.3464159950
H  5.9995015830  0.0176690550  0.0696227320
H  4.1853908810  -0.2255073700  -0.3189244410