11
charge=0, multiplicity=1, basis=def2-QZVPPD, AUX_BASIS_CORR=rimp2-def2-QZVPPD, SCF_ALGORITHM=GDM, xc_grid=000099000590, mem_total=3750, num_basis=502, num_pairs=110857, num_threads=1
H  1.1013711460  -0.0001177390  -0.5877709960
O  0.3970902270  -0.0000275460  0.0678665260
C  1.0058292920  0.0000133340  1.3479306530
H  0.2050036050  -0.0000004300  2.0812970250
H  1.6201806820  -0.8866858050  1.5144960950
H  1.6201278340  0.8867561420  1.5144704940
Cl  1.4988592530  -0.0000100070  -2.8139329690
C  -0.2862396310  0.0000019950  -2.8250159040
H  -0.6160398310  0.0000084030  -3.8566449230
H  -0.6282637240  -0.8870657850  -2.3070738980
H  -0.6282539290  0.8870676140  -2.3070643580