10
charge=0, multiplicity=1, basis=def2-QZVPPD, AUX_BASIS_CORR=rimp2-def2-QZVPPD, SCF_ALGORITHM=GDM, xc_grid=000099000590, mem_total=3750, num_basis=482, num_pairs=80216, num_threads=1
C  0.3011521140  -0.1731180990  2.7644804350
Cl  -0.0248708340  -0.0775821320  1.0171611270
H  1.2475022520  0.3146026230  2.9646547080
H  0.3461311510  -1.2174421260  3.0488361430
H  -0.5017090160  0.3281855310  3.2913451520
C  -0.4059549210  0.2656598150  -4.1522461120
Cl  -0.5886114870  0.3850735810  -5.9187590470
H  -1.2549552770  -0.2760287650  -3.7526662700
H  0.5138388540  -0.2634546190  -3.9339885410
H  -0.3705282510  1.2666354680  -3.7393574520