9
charge=0, multiplicity=1, basis=def2-QZVPPD, AUX_BASIS_CORR=rimp2-def2-QZVPPD, SCF_ALGORITHM=GDM, xc_grid=000099000590, mem_total=3750, num_basis=455, num_pairs=83332, num_threads=1
C  0.0815775460  -0.0795769680  -0.1222485070
Br  1.7965483230  0.3971285000  0.6296790050
H  0.0132555210  -1.1600161540  -0.1567798110
H  -0.6922672870  0.3314028930  0.5144884420
H  0.0181809330  0.3398277270  -1.1188955850
O  4.9309530500  0.8591087480  1.3668943290
C  5.4003546350  0.2531921300  0.4290627290
H  6.4874751830  0.1577171350  0.2866092300
H  4.7620114870  -0.2305431230  -0.3249724990