8
charge=0, multiplicity=1, basis=def2-QZVPPD, AUX_BASIS_CORR=rimp2-def2-QZVPPD, SCF_ALGORITHM=GDM, xc_grid=000099000590, mem_total=3750, num_basis=360, num_pairs=61154, num_threads=1
F  0.3247382310  -0.0000961720  0.3675132430
H  0.1063565990  -0.0000156060  1.2745355950
O  -0.1728040180  0.0001488370  2.9770239260
H  -1.0165375780  -0.0000366040  3.4329927510
C  0.8764269030  0.0000221010  3.9407511350
H  1.8078168960  0.0000631180  3.3850258610
H  0.8439572770  0.8891720900  4.5685760860
H  0.8439266870  -0.8892577640  4.5683904060