9
charge=0, multiplicity=1, basis=def2-QZVPPD, AUX_BASIS_CORR=rimp2-def2-QZVPPD, SCF_ALGORITHM=GDM, xc_grid=000099000590, mem_total=3750, num_basis=492, num_pairs=102812, num_threads=1
O  -0.8225896460  0.1307519920  -0.0046701800
H  0.1513229780  0.2369466710  -0.0052084680
C  -1.0944950600  -1.1715866300  -0.0002358110
F  -2.4083600050  -1.3480467970  0.0023621330
F  -0.5909684670  -1.8120456840  -1.0743908440
F  -0.5875250500  -1.8053227810  1.0763164710
O  2.8053232830  0.3647870910  -0.0062394670
H  3.2600014710  -0.0063550800  -0.7661696640
H  3.2600085680  -0.0073249020  0.7532164080