25
charge=0, multiplicity=1, basis=def2-QZVPPD, AUX_BASIS_CORR=rimp2-def2-QZVPPD, SCF_ALGORITHM=GDM, xc_grid=000099000590, mem_total=30000, num_basis=1190, num_pairs=503141, num_threads=8
C  -0.2239130000  0.0021090000  0.1274040000
C  -0.2295540000  0.0012650000  1.5205720000
C  0.9660660000  -0.0021000000  2.2357290000
C  2.1764170000  -0.0046360000  1.5458880000
C  2.1940950000  -0.0038180000  0.1526230000
C  0.9921790000  -0.0004490000  -0.5522740000
Br  -1.8692370000  0.0046690000  2.4461860000
H  0.9465340000  -0.0027340000  3.3162520000
H  3.1047600000  -0.0072480000  2.1008040000
H  3.1354630000  -0.0057890000  -0.3787060000
H  0.9968800000  0.0002050000  -1.6338170000
H  -1.1590290000  0.0047150000  -0.4143030000
N  -3.9496774220  0.0035153520  3.6351572190
C  -4.7754974220  -1.0752096480  3.1270022190
C  -3.6568784220  -0.2031426480  5.0406192190
C  -4.6084614220  1.2807003520  3.4384742190
H  -4.5679934220  -0.2204256480  5.6595072190
H  -3.1353864220  -1.1500666480  5.1707612190
H  -3.0117354220  0.5961983520  5.4017552190
H  -5.5698794220  1.3419853520  3.9727052190
H  -3.9654004220  2.0834953520  3.7955052190
H  -4.7949404220  1.4372013520  2.3772262190
H  -5.7457294220  -1.1386676480  3.6447832190
H  -4.9625054220  -0.9243976480  2.0650112190
H  -4.2565734220  -2.0241546480  3.2523362190