5
charge=0, multiplicity=1, basis=def2-QZVPPD, mem_total=3750, AUX_BASIS_CORR=rimp2-def2-QZVPPD, SCF_ALGORITHM=GDM, xc_grid=000099000590, num_basis=241, num_pairs=29482, num_threads=1
C  0.0521253070  -0.0319195140  1.8406602930
Cl  -1.4917158020  0.8472074030  1.7551846840
H  0.8119091100  0.5547257680  1.3382646490
H  -0.0678112080  -0.9892746880  1.3477927120
H  0.3111972960  -0.1731437880  2.8832031180