8
charge=0, multiplicity=1, basis=def2-QZVPPD, AUX_BASIS_CORR=rimp2-def2-QZVPPD, SCF_ALGORITHM=GDM, xc_grid=000099000590, mem_total=3750, num_basis=385, num_pairs=70498, num_threads=1
I  0.4943607600  0.0001367280  -0.2991861470
H  -0.0268184510  0.0000098240  1.2277797220
O  -0.2589007890  -0.0001741370  2.9128926770
H  -1.0165462230  0.0000698980  3.5025476610
C  0.9227306530  0.0000061290  3.7058485340
H  1.7607410460  -0.0000952840  3.0156345350
H  0.9919665970  0.8889291980  4.3326143930
H  0.9920135780  -0.8886876260  4.3329346060