10
charge=0, multiplicity=1, basis=def2-QZVPPD, AUX_BASIS_CORR=rimp2-def2-QZVPPD, SCF_ALGORITHM=GDM, xc_grid=000099000590, mem_total=3750, num_basis=453, num_pairs=100275, num_threads=1
O  -3.5397948230  -0.0000781890  -3.4440222460
C  -3.3904732060  0.0038367610  -4.6539369300
C  -2.0036017680  0.0139939230  -5.2569661870
C  -4.5939468730  -0.0014503920  -5.5703404570
H  -1.4708929940  0.8913957090  -4.8935975620
H  -1.4599331490  -0.8584180630  -4.8978376400
H  -2.0105326210  0.0165857950  -6.3422484780
H  -5.2061247550  0.8701935340  -5.3455368060
H  -5.1952262980  -0.8817026940  -5.3497085030
H  -4.3299021270  0.0027044500  -6.6230078630