9
charge=0, multiplicity=1, basis=def2-QZVPPD, AUX_BASIS_CORR=rimp2-def2-QZVPPD, SCF_ALGORITHM=GDM, xc_grid=000099000590, mem_total=3750, num_basis=547, num_pairs=117251, num_threads=1
C  -0.0822180200  -0.0615587410  -0.1068084800
I  1.9012257520  0.3992126230  0.5321887620
F  -0.2500223080  -1.3778957210  -0.2140575620
F  -0.9778808610  0.4006862850  0.7617156530
F  -0.3351973520  0.4853823280  -1.2937889950
O  4.7473692080  0.8277135560  1.1558999040
C  5.4946557170  0.2258127710  0.4144178200
H  6.5861994160  0.2870399710  0.5231312940
H  5.1151766600  -0.4083016410  -0.4000795010