9
charge=0, multiplicity=1, basis=def2-QZVPPD, AUX_BASIS_CORR=rimp2-def2-QZVPPD, SCF_ALGORITHM=GDM, xc_grid=000099000590, mem_total=3750, num_basis=390, num_pairs=74360, num_threads=1
F  -0.0717290410  -0.1088554350  0.2606522320
H  -0.0032184880  -0.0105702130  1.2027832430
N  0.0448997250  0.0400766440  2.6583202070
H  0.9997141930  0.0726776860  2.9908006490
C  -0.6309282760  -1.1537228430  3.1826560170
H  -1.6537955680  -1.1676263550  2.8171420570
H  -0.1319183040  -2.0381250750  2.7968355550
H  -0.6489283390  -1.2105861950  4.2714800130
H  -0.4042008570  0.8756726420  3.0094633550