8
charge=0, multiplicity=1, basis=def2-QZVPPD, AUX_BASIS_CORR=rimp2-def2-QZVPPD, SCF_ALGORITHM=GDM, xc_grid=000099000590, mem_total=3750, num_basis=373, num_pairs=65963, num_threads=1
Cl  0.3777339200  -0.0000004830  0.0064305570
H  0.0494092730  -0.0000018820  1.2556165110
O  -0.2086845990  0.0000066610  2.9917976390
H  -1.0208980460  -0.0000058070  3.5030156230
C  0.8960962570  0.0000006700  3.8905488480
H  1.7927274050  -0.0000008480  3.2793837200
H  0.9044557970  0.8889809950  4.5201881800
H  0.9044514530  -0.8889819990  4.5201849130