5
charge=0, multiplicity=1, basis=def2-QZVPPD, AUX_BASIS_CORR=rimp2-def2-QZVPPD, SCF_ALGORITHM=GDM, xc_grid=000099000590, mem_total=3750, num_basis=294, num_pairs=43398, num_threads=1
C  0.0000234110  0.0001057590  2.0532857350
F  -1.0825267150  0.6253399040  1.5898169680
F  1.0826276820  0.6252377640  1.5899222490
F  -0.0000238600  -1.2498202250  1.5892647530
H  -0.0000419600  -0.0002800620  3.1380920740