9
charge=0, multiplicity=1, basis=def2-QZVPPD, AUX_BASIS_CORR=rimp2-def2-QZVPPD, SCF_ALGORITHM=GDM, xc_grid=000099000590, mem_total=3750, num_basis=554, num_pairs=118369, num_threads=1
C  0.0923484170  -0.0478994430  -0.0841806090
Br  1.8502951740  0.4017566020  0.5412153660
F  -0.0412484240  -1.3652315690  -0.1868344370
F  -0.8301221970  0.4034653070  0.7561547160
F  -0.1276850370  0.4896065790  -1.2783130380
O  4.7818783520  0.8585111180  1.2115051120
C  5.4714587050  0.2396904280  0.4301699660
H  6.5690426380  0.2575764480  0.4880807840
H  5.0321217640  -0.3692345810  -0.3739605300