6
charge=0, multiplicity=1, basis=def2-QZVPPD, AUX_BASIS_CORR=rimp2-def2-QZVPPD, SCF_ALGORITHM=GDM, xc_grid=000099000590, mem_total=3750, num_basis=261, num_pairs=34660, num_threads=1
O  -0.2452534550  -0.0001633200  2.8138015530
H  -1.0028988890  0.0000807150  3.4034565370
C  0.9363779870  0.0000169460  3.6067574100
H  1.7743883800  -0.0000844670  2.9165434110
H  1.0056139310  0.8889400150  4.2335232690
H  1.0056609120  -0.8886768090  4.2338434820