9
charge=0, multiplicity=1, basis=def2-QZVPPD, AUX_BASIS_CORR=rimp2-def2-QZVPPD, SCF_ALGORITHM=GDM, xc_grid=000099000590, mem_total=3750, num_basis=535, num_pairs=112777, num_threads=1
C  0.2280873680  -0.0060273080  -0.1035120240
Cl  1.8088844520  0.6328066870  0.2914649940
F  0.3319593170  -1.2501325040  -0.5554963970
F  -0.5511677780  -0.0133394500  0.9694462080
F  -0.3509218150  0.7333357570  -1.0396515300
O  4.7910420410  1.2125747280  0.8062741000
C  5.3388723240  0.1819900430  0.4819894750
H  6.4298244570  0.0598180480  0.5472764890
H  4.7715090240  -0.6827851130  0.1060460170