9
charge=0, multiplicity=1, basis=def2-QZVPPD, AUX_BASIS_CORR=rimp2-def2-QZVPPD, SCF_ALGORITHM=GDM, xc_grid=000099000590, mem_total=3750, num_basis=492, num_pairs=110380, num_threads=1
O  -0.8225896460  0.1307519920  -0.0046701800
H  0.1513229780  0.2369466710  -0.0052084680
C  -1.0944950600  -1.1715866300  -0.0002358110
F  -2.4083600050  -1.3480467970  0.0023621330
F  -0.5909684670  -1.8120456840  -1.0743908440
F  -0.5875250500  -1.8053227810  1.0763164710
O  1.8322264620  0.3179140340  -0.0058614480
H  2.2869046500  -0.0532281370  -0.7657916450
H  2.2869117470  -0.0541979590  0.7535944270