9
charge=0, multiplicity=1, basis=def2-QZVPPD, AUX_BASIS_CORR=rimp2-def2-QZVPPD, SCF_ALGORITHM=GDM, xc_grid=000099000590, mem_total=3750, num_basis=436, num_pairs=82874, num_threads=1
C  0.1798103490  -0.0771975520  -0.1180246400
Cl  1.7226794790  0.3990312470  0.6280761000
H  0.1303606990  -1.1590760020  -0.1550965130
H  -0.6304771910  0.3143387390  0.4855070400
H  0.1349591640  0.3357481790  -1.1188879990
O  4.2520186740  0.7797017720  1.2352624030
C  4.5489733470  0.1411600490  0.2502029550
H  5.5987095840  -0.0426509290  -0.0265903080
H  3.7845988820  -0.2858273540  -0.4151374810