17
charge=0, multiplicity=1, basis=def2-QZVPPD, AUX_BASIS_CORR=rimp2-def2-QZVPPD, SCF_ALGORITHM=GDM, xc_grid=000099000590, mem_total=7500, num_basis=829, num_pairs=278114, num_threads=2
H  0.0221066680  0.3377200360  0.0443053760
C  0.0269193530  0.2971572560  1.1277932360
C  1.2324200090  0.3742853650  1.8232065010
C  1.2385053950  0.3183038500  3.2156362320
C  0.0394475080  0.1845409720  3.9132551700
C  -1.1662199610  0.1071134760  3.2186291520
C  -1.1729800380  0.1639134040  1.8255146930
H  2.1655324400  0.4743160670  1.2803101280
H  2.1766293610  0.3751311470  3.7561750760
H  0.0447169800  0.1370406600  4.9963805630
H  -2.0988616030  -0.0005628610  3.7609471210
H  -2.1107031070  0.1016046350  1.2846101130
I  -0.2415886800  -3.1403312720  1.8948989690
C  0.0329325790  -5.2437419720  1.8838794500
H  0.0373367990  -5.5774492800  0.8509561140
H  0.9817843880  -5.4616736470  2.3640473980
H  -0.7891386750  -5.6938376040  2.4315431370