17
charge=0, multiplicity=1, basis=def2-QZVPPD, AUX_BASIS_CORR=rimp2-def2-QZVPPD, SCF_ALGORITHM=GDM, xc_grid=000099000590, mem_total=15000, num_basis=836, num_pairs=290433, num_threads=4
H  0.0077081340  0.2142771330  0.0523255310
C  0.0103856220  0.2004738490  1.1336445710
C  1.2178780910  0.2461686360  1.8284320640
C  1.2212557770  0.2231832800  3.2217037550
C  0.0175040670  0.1544343650  3.9205261250
C  -1.1897948140  0.1083844280  3.2262234110
C  -1.1936207030  0.1314225120  1.8327372090
H  2.1520514760  0.2948290390  1.2858149700
H  2.1583588240  0.2551843680  3.7605835540
H  0.0204691860  0.1332775660  5.0017678380
H  -2.1237270100  0.0506291460  3.7683577320
H  -2.1301449160  0.0908919010  1.2935083740
Br  -0.0276507930  -2.5852308110  1.7376296940
C  0.1009308190  -4.5127797580  1.8333614890
H  0.0322366160  -4.9088580920  0.8276049940
H  1.0543973140  -4.7675145100  2.2796562850
H  -0.7158299940  -4.8777588650  2.4439678230