10
charge=0, multiplicity=1, basis=def2-QZVPPD, AUX_BASIS_CORR=rimp2-def2-QZVPPD, SCF_ALGORITHM=GDM, xc_grid=000099000590, mem_total=3750, num_basis=456, num_pairs=89899, num_threads=1
C  0.2502113880  -0.1412612830  2.2783059520
F  0.0550155730  -0.0606885540  0.9115384240
H  1.1893102500  0.3429787950  2.5312751490
H  0.2828917740  -1.1871668590  2.5705255240
H  -0.5714435960  0.3585134970  2.7838640060
C  -0.1878611930  0.1027633330  -1.6865331840
F  -0.3187173820  0.2059457780  -3.0598764160
H  -1.0390542010  -0.4398344520  -1.2857673880
H  0.7292229290  -0.4304669410  -1.4536533070
H  -0.1520610620  1.0984966920  -1.2544560990