22
charge=0, multiplicity=1, basis=def2-QZVPPD, AUX_BASIS_CORR=rimp2-def2-QZVPPD, SCF_ALGORITHM=GDM, xc_grid=000099000590, mem_total=15000, num_basis=1075, num_pairs=391191, num_threads=4
C  -0.4537437400  0.0001827390  1.0592003270
C  0.5839945720  -0.0000284020  1.9882448100
C  1.9111238080  -0.0001427600  1.5639517740
C  2.2000154620  -0.0000609480  0.2008571380
C  1.1718525560  0.0001516890  -0.7384667540
H  -1.4862763240  0.0002689750  1.3772406030
H  0.3513194240  -0.0001031420  3.0442910190
H  2.7128304380  -0.0002903900  2.2888377640
H  3.2272380820  -0.0001628560  -0.1368872630
H  1.3832747000  0.0002148940  -1.7979056340
C  -0.1498414590  0.0002810080  -0.2997998440
Cl  -1.4322883910  0.0005596970  -1.4664149830
O  -3.7848753620  0.0001371260  -3.7025490320
C  -4.9322922050  0.0019282940  -3.2953469290
C  -6.0914000170  -0.0005682090  -4.2698084440
C  -5.2205085710  0.0066553340  -1.8091954120
H  -6.0060657280  0.8732872090  -4.9133254070
H  -6.0071480390  -0.8787148430  -4.9075847390
H  -7.0615273850  0.0016219060  -3.7829641440
H  -6.2813728890  0.0080393870  -1.5792240630
H  -4.7508426610  -0.8671319740  -1.3607325340
H  -4.7497102700  0.8825532670  -1.3660882520