9
charge=0, multiplicity=1, basis=def2-QZVPPD, AUX_BASIS_CORR=rimp2-def2-QZVPPD, SCF_ALGORITHM=GDM, xc_grid=000099000590, mem_total=3750, num_basis=535, num_pairs=115247, num_threads=1
C  0.2280873680  -0.0060273080  -0.1035120240
Cl  1.8088844520  0.6328066870  0.2914649940
F  0.3319593170  -1.2501325040  -0.5554963970
F  -0.5511677780  -0.0133394500  0.9694462080
F  -0.3509218150  0.7333357570  -1.0396515300
O  4.4929230640  1.1546167400  0.7548098970
C  5.0407533470  0.1240320550  0.4305252720
H  6.1317054800  0.0018600600  0.4958122860
H  4.4733900470  -0.7407431010  0.0545818140