9
charge=0, multiplicity=1, basis=def2-QZVPPD, AUX_BASIS_CORR=rimp2-def2-QZVPPD, SCF_ALGORITHM=GDM, xc_grid=000099000590, mem_total=3750, num_basis=448, num_pairs=84767, num_threads=1
C  -0.0955012800  -0.0911330310  -0.1413157050
I  1.8303958800  0.3969778390  0.6151652030
H  -0.1793977140  -1.1699116890  -0.1843364220
H  -0.8362898410  0.3238411640  0.5308545840
H  -0.1912595880  0.3407719520  -1.1297572700
O  4.3647557140  0.7600134110  1.1877694000
C  4.9406371920  0.1694899430  0.3001512610
H  6.0387506260  0.1296515120  0.2495226020
H  4.3921215840  -0.3544265950  -0.4967113890