9
charge=0, multiplicity=1, basis=def2-QZVPPD, AUX_BASIS_CORR=rimp2-def2-QZVPPD, SCF_ALGORITHM=GDM, xc_grid=000099000590, mem_total=3750, num_basis=547, num_pairs=120549, num_threads=1
C  -0.0822180200  -0.0615587410  -0.1068084800
I  1.9012257520  0.3992126230  0.5321887620
F  -0.2500223080  -1.3778957210  -0.2140575620
F  -0.9778808610  0.4006862850  0.7617156530
F  -0.3351973520  0.4853823280  -1.2937889950
O  4.2979933950  0.7600578110  1.0574225410
C  5.0452799040  0.1581570260  0.3159404570
H  6.1368236030  0.2193842260  0.4246539310
H  4.6658008470  -0.4759573860  -0.4985568640