8
charge=0, multiplicity=1, basis=def2-QZVPPD, AUX_BASIS_CORR=rimp2-def2-QZVPPD, SCF_ALGORITHM=GDM, xc_grid=000099000590, mem_total=3750, num_basis=385, num_pairs=69919, num_threads=1
I  0.4943607600  0.0001367280  -0.2991861470
H  -0.0268184510  0.0000098240  1.2277797220
O  -0.2725561250  -0.0001849610  3.0120418990
H  -1.0302015590  0.0000590740  3.6016968830
C  0.9090753170  -0.0000046950  3.8049977560
H  1.7470857100  -0.0001061080  3.1147837570
H  0.9783112610  0.8889183740  4.4317636150
H  0.9783582420  -0.8886984500  4.4320838280