9
charge=0, multiplicity=1, basis=def2-QZVPPD, AUX_BASIS_CORR=rimp2-def2-QZVPPD, SCF_ALGORITHM=GDM, xc_grid=000099000590, mem_total=3750, num_basis=403, num_pairs=79174, num_threads=1
Cl  -0.1072093790  -0.1673105420  -0.0200231040
H  0.0095302180  0.0081288870  1.3048178250
N  0.0599556910  0.0631560360  2.8143772210
H  1.0116251770  0.0846043910  3.1571331370
C  -0.6272161150  -1.1491604310  3.2749059920
H  -1.6409488760  -1.1465581420  2.8838780980
H  -0.1187098090  -2.0170165530  2.8640356960
H  -0.6692312740  -1.2473474180  4.3597081840
H  -0.3976814950  0.8902091980  3.1751690290