8
charge=0, multiplicity=1, basis=def2-QZVPPD, AUX_BASIS_CORR=rimp2-def2-QZVPPD, SCF_ALGORITHM=GDM, xc_grid=000099000590, mem_total=3750, num_basis=373, num_pairs=60958, num_threads=1
Cl  0.3777339200  -0.0000004830  0.0064305570
H  0.0494092730  -0.0000018820  1.2556165110
O  -0.3580988540  0.0000116060  3.9968978690
H  -1.1703123010  -0.0000008620  4.5081158530
C  0.7466820020  0.0000056150  4.8956490780
H  1.6433131500  0.0000040970  4.2844839500
H  0.7550415420  0.8889859400  5.5252884100
H  0.7550371980  -0.8889770540  5.5252851430