24
charge=0, multiplicity=1, basis=def2-QZVPPD, AUX_BASIS_CORR=rimp2-def2-QZVPPD, SCF_ALGORITHM=GDM, xc_grid=000099000590, mem_total=30000, num_basis=1251, num_pairs=646091, num_threads=8
F  -1.9140740310  -1.1712080270  -0.1106727090
H  -2.1806647310  1.3989383080  -0.4093753690
C  0.3734465980  -0.7768563180  0.2130484340
C  -0.9011055530  -0.2957135110  -0.0383421680
C  -1.1785908410  1.0510758400  -0.2153173490
C  -0.1112153050  1.9305881580  -0.1277252540
C  1.1874384750  1.5173179040  0.1234824840
C  1.3942096630  0.1565847120  0.2903670810
F  -0.3466651860  3.2423284650  -0.2884200340
H  2.0004117880  2.2228561410  0.1892547240
H  0.5595389290  -1.8283336560  0.3602859180
F  2.6390061910  -0.2740213550  0.5412916430
H  -1.9492951590  -2.2416720460  3.0859952810
H  -2.4160566530  0.1817123260  2.9067342350
C  0.1610137710  -1.9715640510  3.3978661600
C  -1.1423053100  -1.5277803740  3.1792125280
C  -1.4049969880  -0.1625651420  3.0777058240
C  -0.3654466420  0.7585949390  3.1955016020
C  0.9375924680  0.3140061440  3.4135157650
C  1.2012630460  -1.0509944880  3.5152136290
H  -0.5695223560  1.8179098520  3.1159344350
H  1.7449141060  1.0283180940  3.5033686450
H  0.3648510690  -3.0308134310  3.4794543550
H  2.2127877880  -1.3948804110  3.6827563940