6
charge=0, multiplicity=1, basis=def2-QZVPPD, AUX_BASIS_CORR=rimp2-def2-QZVPPD, SCF_ALGORITHM=GDM, xc_grid=000099000590, mem_total=3750, num_basis=274, num_pairs=37950, num_threads=1
S  -2.7313886660  5.5458946290  1.0711154390
H  -3.9474951600  5.0544380460  0.8175040890
C  -2.3078404950  5.9598306250  -0.6449318860
H  -1.3031384920  6.3721241670  -0.6161347080
H  -2.3025726690  5.0731972970  -1.2710527750
H  -2.9840360760  6.7078682070  -1.0459678940