10
charge=0, multiplicity=1, basis=def2-QZVPPD, AUX_BASIS_CORR=rimp2-def2-QZVPPD, SCF_ALGORITHM=GDM, xc_grid=000099000590, mem_total=3750, num_basis=436, num_pairs=72288, num_threads=1
C  0.0521253070  -0.0319195140  1.8406602930
Cl  -1.4917158020  0.8472074030  1.7551846840
H  0.8119091100  0.5547257680  1.3382646490
H  -0.0678112080  -0.9892746880  1.3477927120
H  0.3111972960  -0.1731437880  2.8832031180
C  0.5493360980  -0.3087085820  -3.3948789960
H  0.4773050650  -0.2770554860  -4.4775034210
H  -0.3170554030  -0.8213992630  -2.9889103730
H  1.4542407590  -0.8375418050  -3.1107843030
H  0.5791344880  0.7035908940  -3.0041403120