10
charge=0, multiplicity=1, basis=def2-QZVPPD, AUX_BASIS_CORR=rimp2-def2-QZVPPD, SCF_ALGORITHM=GDM, xc_grid=000099000590, mem_total=3750, num_basis=528, num_pairs=126130, num_threads=1
C  -0.0000285090  -0.0004619290  2.1581490220
Cl  -1.4540637340  0.8387773030  1.6162350120
Cl  1.4541445310  0.8386597270  1.6162085150
Cl  -0.0000874000  -1.6797950340  1.6178029380
H  0.0000056960  0.0002673250  3.2393059490
C  -0.0000224640  0.0003782310  -1.6514990120
H  0.0000252240  -0.0014907800  -2.7372550660
H  -0.8854996460  -0.5103557740  -1.2863674910
H  0.8856239740  -0.5102054910  -1.2863310630
H  -0.0000926070  1.0235546270  -1.2889868130