5
charge=0, multiplicity=1, basis=def2-QZVPPD, mem_total=3750, AUX_BASIS_CORR=rimp2-def2-QZVPPD, SCF_ALGORITHM=GDM, xc_grid=000099000590, num_basis=195, num_pairs=19452, num_threads=1
C  -0.1406094840  0.0813660180  -1.1100099880
H  -0.2126405170  0.1130191140  -2.1926344130
H  -1.0070009850  -0.4313246630  -0.7040413650
H  0.7642951770  -0.4474672050  -0.8259152950
H  -0.1108110940  1.0936654940  -0.7192713040