9
charge=0, multiplicity=1, basis=def2-QZVPPD, AUX_BASIS_CORR=rimp2-def2-QZVPPD, SCF_ALGORITHM=GDM, xc_grid=000099000590, mem_total=3750, num_basis=547, num_pairs=118285, num_threads=1
C  -0.0822180200  -0.0615587410  -0.1068084800
I  1.9012257520  0.3992126230  0.5321887620
F  -0.2500223080  -1.3778957210  -0.2140575620
F  -0.9778808610  0.4006862850  0.7617156530
F  -0.3351973520  0.4853823280  -1.2937889950
O  4.5975772700  0.8051616410  1.1230741160
C  5.3448637790  0.2032608560  0.3815920320
H  6.4364074780  0.2644880560  0.4903055060
H  4.9653847220  -0.4308535560  -0.4329052890