12
charge=0, multiplicity=1, basis=def2-QZVPPD, AUX_BASIS_CORR=rimp2-def2-QZVPPD, SCF_ALGORITHM=GDM, xc_grid=000099000590, mem_total=3750, num_basis=576, num_pairs=158976, num_threads=1
H  -1.7521620350  -1.3004034810  2.5210634030
H  -2.1500168320  1.1442335040  2.5367558090
C  0.3765816700  -1.1133127720  2.7627232030
C  -0.9199100200  -0.6173701100  2.6280385600
C  -1.1440868720  0.7590639060  2.6387393980
C  -0.0723142290  1.6391097960  2.7855642740
C  1.2234747360  1.1427678540  2.9207892460
C  1.4482121580  -0.2331183130  2.9094279490
H  -0.2465465430  2.7064340310  2.7933192810
H  2.0546862930  1.8252609430  3.0323691810
H  0.5507345120  -2.1811087360  2.7566380120
H  2.4534839810  -0.6181179490  3.0130441920