10
charge=0, multiplicity=1, basis=def2-QZVPPD, AUX_BASIS_CORR=rimp2-def2-QZVPPD, SCF_ALGORITHM=GDM, xc_grid=000099000590, mem_total=3750, num_basis=528, num_pairs=122187, num_threads=1
C  -0.0000285090  -0.0004619290  2.1581490220
Cl  -1.4540637340  0.8387773030  1.6162350120
Cl  1.4541445310  0.8386597270  1.6162085150
Cl  -0.0000874000  -1.6797950340  1.6178029380
H  0.0000056960  0.0002673250  3.2393059490
C  -0.0000234770  0.0005125900  -2.0509514100
H  0.0000242110  -0.0013564210  -3.1367074640
H  -0.8855006590  -0.5102214150  -1.6858198890
H  0.8856229610  -0.5100711320  -1.6857834610
H  -0.0000936200  1.0236889860  -1.6884392110