10
charge=0, multiplicity=1, basis=def2-QZVPPD, AUX_BASIS_CORR=rimp2-def2-QZVPPD, SCF_ALGORITHM=GDM, xc_grid=000099000590, mem_total=3750, num_basis=436, num_pairs=86602, num_threads=1
C  0.0521253070  -0.0319195140  1.8406602930
Cl  -1.4917158020  0.8472074030  1.7551846840
H  0.8119091100  0.5547257680  1.3382646490
H  -0.0678112080  -0.9892746880  1.3477927120
H  0.3111972960  -0.1731437880  2.8832031180
C  0.0776029560  -0.0420047700  -1.8326566060
H  0.0055719230  -0.0103516740  -2.9152810310
H  -0.7887885450  -0.5546954510  -1.4266879830
H  0.9825076170  -0.5708379930  -1.5485619130
H  0.1074013460  0.9702947060  -1.4419179220