9
charge=0, multiplicity=1, basis=def2-QZVPPD, AUX_BASIS_CORR=rimp2-def2-QZVPPD, SCF_ALGORITHM=GDM, xc_grid=000099000590, mem_total=3750, num_basis=448, num_pairs=82729, num_threads=1
C  -0.0955012800  -0.0911330310  -0.1413157050
I  1.8303958800  0.3969778390  0.6151652030
H  -0.1793977140  -1.1699116890  -0.1843364220
H  -0.8362898410  0.3238411640  0.5308545840
H  -0.1912595880  0.3407719520  -1.1297572700
O  4.6815386180  0.8053911270  1.2593421970
C  5.2574200960  0.2148676590  0.3717240580
H  6.3555335300  0.1750292280  0.3210953990
H  4.7089044880  -0.3090488790  -0.4251385920