9
charge=0, multiplicity=1, basis=def2-QZVPPD, AUX_BASIS_CORR=rimp2-def2-QZVPPD, SCF_ALGORITHM=GDM, xc_grid=000099000590, mem_total=3750, num_basis=554, num_pairs=119420, num_threads=1
C  0.0923484170  -0.0478994430  -0.0841806090
Br  1.8502951740  0.4017566020  0.5412153660
F  -0.0412484240  -1.3652315690  -0.1868344370
F  -0.8301221970  0.4034653070  0.7561547160
F  -0.1276850370  0.4896065790  -1.2783130380
O  4.6353955720  0.8356884080  1.1780126610
C  5.3249759250  0.2168677180  0.3966775150
H  6.4225598580  0.2347537380  0.4545883330
H  4.8856389840  -0.3920572910  -0.4074529810