10
charge=0, multiplicity=1, basis=def2-QZVPPD, AUX_BASIS_CORR=rimp2-def2-QZVPPD, SCF_ALGORITHM=GDM, xc_grid=000099000590, mem_total=3750, num_basis=528, num_pairs=128119, num_threads=1
C  -0.0000285090  -0.0004619290  2.1581490220
Cl  -1.4540637340  0.8387773030  1.6162350120
Cl  1.4541445310  0.8386597270  1.6162085150
Cl  -0.0000874000  -1.6797950340  1.6178029380
H  0.0000056960  0.0002673250  3.2393059490
C  -0.0000219470  0.0003096710  -1.4476692420
H  0.0000257410  -0.0015593400  -2.5334252960
H  -0.8854991290  -0.5104243340  -1.0825377210
H  0.8856244910  -0.5102740510  -1.0825012930
H  -0.0000920900  1.0234860670  -1.0851570430