25
charge=0, multiplicity=1, basis=def2-QZVPPD, AUX_BASIS_CORR=rimp2-def2-QZVPPD, SCF_ALGORITHM=GDM, xc_grid=000099000590, mem_total=30000, num_basis=1183, num_pairs=480611, num_threads=8
C  1.0372880000  0.0005390000  -0.5821020000
C  -0.1764870000  -0.0002710000  0.1027150000
C  -0.1831740000  -0.0005180000  1.4981330000
C  1.0198800000  0.0000400000  2.2051720000
C  2.2286160000  0.0008480000  1.5115050000
C  2.2417530000  0.0010960000  0.1182730000
I  -2.0040730000  -0.0016960000  2.5343770000
H  1.0131570000  -0.0001350000  3.2862440000
H  3.1591150000  0.0012790000  2.0632250000
H  3.1813980000  0.0017150000  -0.4164150000
H  1.0382830000  0.0007290000  -1.6638690000
H  -1.1093040000  -0.0006880000  -0.4437320000
N  -4.6039020000  -0.0019770000  4.0167740000
C  -5.4535580000  1.0330930000  3.4556680000
C  -5.2233740000  -1.3060930000  3.8627890000
C  -4.3319210000  0.2685650000  5.4170860000
H  -5.2505250000  0.2836510000  6.0232150000
H  -3.6683470000  -0.4973370000  5.8151810000
H  -3.8386880000  1.2343680000  5.5137280000
H  -6.4301910000  1.0875090000  3.9603390000
H  -4.9621370000  2.0000960000  3.5492390000
H  -5.6220260000  0.8345310000  2.3985040000
H  -6.1881390000  -1.3722140000  4.3884610000
H  -5.3913700000  -1.5086110000  2.8063150000
H  -4.5612010000  -2.0744390000  4.2584040000