22
charge=0, multiplicity=1, basis=def2-QZVPPD, AUX_BASIS_CORR=rimp2-def2-QZVPPD, SCF_ALGORITHM=GDM, xc_grid=000099000590, mem_total=15000, num_basis=1087, num_pairs=408588, num_threads=4
C  -0.4360198700  -0.0000015030  1.0354072880
C  0.5897622060  -0.0000132140  1.9785000620
C  1.9222473120  -0.0000062010  1.5716955880
C  2.2282660340  -0.0000219720  0.2125691210
C  1.2110871380  -0.0000064050  -0.7401535800
H  -1.4692420300  -0.0000019500  1.3522246130
H  0.3431010910  -0.0000084250  3.0316296850
H  2.7146942280  0.0000115020  2.3070329180
H  3.2602613960  -0.0000265540  -0.1115515200
H  1.4507078080  -0.0000101080  -1.7939855220
C  -0.1204028240  0.0000221220  -0.3235759400
I  -1.6582241040  0.0002212030  -1.7380199700
O  -3.5397948230  -0.0000781890  -3.4440222460
C  -3.3904732060  0.0038367610  -4.6539369300
C  -2.0036017680  0.0139939230  -5.2569661870
C  -4.5939468730  -0.0014503920  -5.5703404570
H  -1.4708929940  0.8913957090  -4.8935975620
H  -1.4599331490  -0.8584180630  -4.8978376400
H  -2.0105326210  0.0165857950  -6.3422484780
H  -5.2061247550  0.8701935340  -5.3455368060
H  -5.1952262980  -0.8817026940  -5.3497085030
H  -4.3299021270  0.0027044500  -6.6230078630