18
charge=0, multiplicity=1, basis=def2-QZVPPD, AUX_BASIS_CORR=rimp2-def2-QZVPPD, SCF_ALGORITHM=GDM, xc_grid=000099000590, mem_total=15000, num_basis=908, num_pairs=313088, num_threads=4
C  -0.7554225310  -0.7964591230  -1.0235903910
C  0.6342748340  -0.8800170140  -1.0752332850
C  1.4069552020  0.1996953670  -0.6531443340
C  0.7988637370  1.3612045150  -0.1805979090
C  -0.5931667870  1.4343120230  -0.1335979230
C  -1.3762391980  0.3592052220  -0.5532585160
I  -1.5143442380  3.1732681010  0.5736011060
H  1.1109069490  -1.7788017280  -1.4406198360
H  1.3991723020  2.1977673550  0.1474127510
H  2.4864177800  0.1424665250  -0.6893805740
H  -2.4542522500  0.4225811200  -0.5128079580
H  -1.3623535930  -1.6305645230  -1.3487431490
S  -2.7313886660  5.5458946290  1.0711154390
H  -3.9474951600  5.0544380460  0.8175040890
C  -2.3078404950  5.9598306250  -0.6449318860
H  -1.3031384920  6.3721241670  -0.6161347080
H  -2.3025726690  5.0731972970  -1.2710527750
H  -2.9840360760  6.7078682070  -1.0459678940