8
charge=0, multiplicity=1, basis=def2-QZVPPD, AUX_BASIS_CORR=rimp2-def2-QZVPPD, SCF_ALGORITHM=GDM, xc_grid=000099000590, mem_total=3750, num_basis=392, num_pairs=70261, num_threads=1
Br  0.4307590460  -0.0001152150  -0.1079456070
H  0.0177504100  -0.0000138110  1.2599673530
O  -0.2417685680  0.0001719180  3.0367336290
H  -1.0334292030  -0.0000512270  3.5796013300
C  0.8957787500  0.0000146890  3.8930686290
H  1.7690907240  0.0000876150  3.2486026430
H  0.9288010710  0.8889044820  4.5222890040
H  0.9287608480  -0.8890570360  4.5220328760