18
charge=0, multiplicity=1, basis=def2-QZVPPD, AUX_BASIS_CORR=rimp2-def2-QZVPPD, SCF_ALGORITHM=GDM, xc_grid=000099000590, mem_total=15000, num_basis=908, num_pairs=309936, num_threads=4
C  -0.7554225310  -0.7964591230  -1.0235903910
C  0.6342748340  -0.8800170140  -1.0752332850
C  1.4069552020  0.1996953670  -0.6531443340
C  0.7988637370  1.3612045150  -0.1805979090
C  -0.5931667870  1.4343120230  -0.1335979230
C  -1.3762391980  0.3592052220  -0.5532585160
I  -1.5143442380  3.1732681010  0.5736011060
H  1.1109069490  -1.7788017280  -1.4406198360
H  1.3991723020  2.1977673550  0.1474127510
H  2.4864177800  0.1424665250  -0.6893805740
H  -2.4542522500  0.4225811200  -0.5128079580
H  -1.3623535930  -1.6305645230  -1.3487431490
S  -2.8165318990  5.7118812520  1.1059210530
H  -4.0326383930  5.2204246690  0.8523097030
C  -2.3929837280  6.1258172480  -0.6101262720
H  -1.3882817250  6.5381107900  -0.5813290940
H  -2.3877159020  5.2391839200  -1.2362471610
H  -3.0691793090  6.8738548300  -1.0111622800