10
charge=0, multiplicity=1, basis=def2-QZVPPD, AUX_BASIS_CORR=rimp2-def2-QZVPPD, SCF_ALGORITHM=GDM, xc_grid=000099000590, mem_total=3750, num_basis=436, num_pairs=89073, num_threads=1
C  0.0521253070  -0.0319195140  1.8406602930
Cl  -1.4917158020  0.8472074030  1.7551846840
H  0.8119091100  0.5547257680  1.3382646490
H  -0.0678112080  -0.9892746880  1.3477927120
H  0.3111972960  -0.1731437880  2.8832031180
C  -0.0270085320  0.0171394370  -1.4862183450
H  -0.0990395650  0.0487925330  -2.5688427700
H  -0.8934000330  -0.4955512440  -1.0802497220
H  0.8778961290  -0.5116937860  -1.2021236520
H  0.0027898580  1.0294389130  -1.0954796610