10
charge=0, multiplicity=1, basis=def2-QZVPPD, AUX_BASIS_CORR=rimp2-def2-QZVPPD, SCF_ALGORITHM=GDM, xc_grid=000099000590, mem_total=3750, num_basis=423, num_pairs=80210, num_threads=1
C  0.0059186500  -0.0034965270  1.8538789930
F  -1.1725428550  0.6748175670  1.6145874880
H  0.8307098430  0.5460482890  1.4079627890
H  -0.0560580410  -0.9937478230  1.4103553800
H  0.1560780350  -0.0883287390  2.9270690550
C  0.0477474960  -0.0273827900  -1.8427851830
H  -0.0326228020  0.0180531380  -2.9242850950
H  -0.8110681130  -0.5523514840  -1.4367489120
H  0.9584887400  -0.5529930730  -1.5719126490
H  0.0733490480  0.9793814410  -1.4381218660