10
charge=0, multiplicity=1, basis=def2-QZVPPD, AUX_BASIS_CORR=rimp2-def2-QZVPPD, SCF_ALGORITHM=GDM, xc_grid=000099000590, mem_total=3750, num_basis=436, num_pairs=88090, num_threads=1
C  0.0521253070  -0.0319195140  1.8406602930
Cl  -1.4917158020  0.8472074030  1.7551846840
H  0.8119091100  0.5547257680  1.3382646490
H  -0.0678112080  -0.9892746880  1.3477927120
H  0.3111972960  -0.1731437880  2.8832031180
C  0.0261396410  -0.0129089500  -1.6622273180
H  -0.0458913920  0.0187441460  -2.7448517430
H  -0.8402518600  -0.5255996310  -1.2562586950
H  0.9310443020  -0.5417421730  -1.3781326250
H  0.0559380310  0.9993905260  -1.2714886340