22
charge=0, multiplicity=1, basis=def2-QZVPPD, AUX_BASIS_CORR=rimp2-def2-QZVPPD, SCF_ALGORITHM=GDM, xc_grid=000099000590, mem_total=15000, num_basis=1087, num_pairs=402247, num_threads=4
C  -0.4360198700  -0.0000015030  1.0354072880
C  0.5897622060  -0.0000132140  1.9785000620
C  1.9222473120  -0.0000062010  1.5716955880
C  2.2282660340  -0.0000219720  0.2125691210
C  1.2110871380  -0.0000064050  -0.7401535800
H  -1.4692420300  -0.0000019500  1.3522246130
H  0.3431010910  -0.0000084250  3.0316296850
H  2.7146942280  0.0000115020  2.3070329180
H  3.2602613960  -0.0000265540  -0.1115515200
H  1.4507078080  -0.0000101080  -1.7939855220
C  -0.1204028240  0.0000221220  -0.3235759400
I  -1.6582241040  0.0002212030  -1.7380199700
O  -3.7749819030  -0.0001156110  -3.6572641350
C  -3.6256602860  0.0037993390  -4.8671788190
C  -2.2387888480  0.0139565010  -5.4702080760
C  -4.8291339530  -0.0014878140  -5.7835823460
H  -1.7060800740  0.8913582870  -5.1068394510
H  -1.6951202290  -0.8584554850  -5.1110795290
H  -2.2457197010  0.0165483730  -6.5554903670
H  -5.4413118350  0.8701561120  -5.5587786950
H  -5.4304133780  -0.8817401160  -5.5629503920
H  -4.5650892070  0.0026670280  -6.8362497520