4
charge=0, multiplicity=1, basis=def2-QZVPPD, AUX_BASIS_CORR=rimp2-def2-QZVPPD, SCF_ALGORITHM=GDM, xc_grid=000099000590, mem_total=3750, num_basis=195, num_pairs=19475, num_threads=1
O  4.2520186740  0.7797017720  1.2352624030
C  4.5489733470  0.1411600490  0.2502029550
H  5.5987095840  -0.0426509290  -0.0265903080
H  3.7845988820  -0.2858273540  -0.4151374810