7
charge=0, multiplicity=1, basis=def2-QZVPPD, AUX_BASIS_CORR=rimp2-def2-QZVPPD, SCF_ALGORITHM=GDM, xc_grid=000099000590, mem_total=3750, num_basis=327, num_pairs=45459, num_threads=1
C  -0.0997791420  -0.0492131060  -0.0498098060
H  -0.8123835090  0.7694378990  -0.0538147820
H  -0.3866261610  -0.7739281790  0.7057681120
H  0.8905518610  0.3336638230  0.1752210840
H  -0.0898264770  -0.5241720390  -1.0258609850
F  -1.1010496790  -3.2180689400  -0.6281438630
F  -1.5176018940  -4.5327544590  -0.8618167600