10
charge=0, multiplicity=1, basis=def2-QZVPPD, AUX_BASIS_CORR=rimp2-def2-QZVPPD, SCF_ALGORITHM=GDM, xc_grid=000099000590, mem_total=3750, num_basis=423, num_pairs=85609, num_threads=1
C  0.0059186500  -0.0034965270  1.8538789930
F  -1.1725428550  0.6748175670  1.6145874880
H  0.8307098430  0.5460482890  1.4079627890
H  -0.0560580410  -0.9937478230  1.4103553800
H  0.1560780350  -0.0883287390  2.9270690550
C  -0.0833817470  0.0480571710  -1.1469371280
H  -0.1637520450  0.0934930990  -2.2284370400
H  -0.9421973560  -0.4769115230  -0.7409008570
H  0.8273594970  -0.4775531120  -0.8760645940
H  -0.0577801950  1.0548214020  -0.7422738110