8
charge=0, multiplicity=1, basis=def2-QZVPPD, AUX_BASIS_CORR=rimp2-def2-QZVPPD, SCF_ALGORITHM=GDM, xc_grid=000099000590, mem_total=3750, num_basis=373, num_pairs=66798, num_threads=1
Cl  0.3777339200  -0.0000004830  0.0064305570
H  0.0494092730  -0.0000018820  1.2556165110
O  -0.1815183710  0.0000057620  2.8090521430
H  -0.9937318180  -0.0000067060  3.3202701270
C  0.9232624850  -0.0000002290  3.7078033520
H  1.8198936330  -0.0000017470  3.0966382240
H  0.9316220250  0.8889800960  4.3374426840
H  0.9316176810  -0.8889828980  4.3374394170