18
charge=0, multiplicity=1, basis=def2-QZVPPD, AUX_BASIS_CORR=rimp2-def2-QZVPPD, SCF_ALGORITHM=GDM, xc_grid=000099000590, mem_total=15000, num_basis=915, num_pairs=315913, num_threads=4
C  -0.1898331760  -0.6453964350  0.0698077610
C  1.1216363240  -0.3540655760  0.4390965140
C  1.4865209530  0.9625726320  0.7121072250
C  0.5493293900  1.9892093240  0.6178689560
C  -0.7576271350  1.6818626300  0.2468569080
C  -1.1381904600  0.3705518160  -0.0285823250
Br  -2.0384627780  3.0704598410  0.1151654290
H  1.8529352450  -1.1464346990  0.5141192040
H  0.8250487230  3.0121769890  0.8293854720
H  2.5022597690  1.1964335560  1.0003173330
H  -2.1571401870  0.1516081610  -0.3131814710
H  -0.4808204870  -1.6649836310  -0.1429184160
S  -3.8103384260  5.2939996880  -0.7159484500
H  -4.4766863800  4.3605047770  -1.4006206590
C  -2.4812334740  5.5350083640  -1.9283768360
H  -1.8204722470  6.2867719500  -1.5058091360
H  -1.9178497680  4.6192512100  -2.0773858200
H  -2.8714198580  5.9018630250  -2.8722743790