9
charge=0, multiplicity=1, basis=def2-QZVPPD, AUX_BASIS_CORR=rimp2-def2-QZVPPD, SCF_ALGORITHM=GDM, xc_grid=000099000590, mem_total=3750, num_basis=436, num_pairs=78622, num_threads=1
C  0.1798103490  -0.0771975520  -0.1180246400
Cl  1.7226794790  0.3990312470  0.6280761000
H  0.1303606990  -1.1590760020  -0.1550965130
H  -0.6304771910  0.3143387390  0.4855070400
H  0.1349591640  0.3357481790  -1.1188879990
O  4.8400019580  0.8681944130  1.3764120750
C  5.1369566310  0.2296526900  0.3913526270
H  6.1866928680  0.0458417120  0.1145593640
H  4.3725821660  -0.1973347130  -0.2739878090