10
charge=0, multiplicity=1, basis=def2-QZVPPD, AUX_BASIS_CORR=rimp2-def2-QZVPPD, SCF_ALGORITHM=GDM, xc_grid=000099000590, mem_total=3750, num_basis=456, num_pairs=88431, num_threads=1
C  0.2502113880  -0.1412612830  2.2783059520
F  0.0550155730  -0.0606885540  0.9115384240
H  1.1893102500  0.3429787950  2.5312751490
H  0.2828917740  -1.1871668590  2.5705255240
H  -0.5714435960  0.3585134970  2.7838640060
C  -0.2038508590  0.1129099240  -1.8437422520
F  -0.3347070480  0.2160923690  -3.2170854840
H  -1.0550438670  -0.4296878610  -1.4429764560
H  0.7132332630  -0.4203203500  -1.6108623750
H  -0.1680507280  1.1086432830  -1.4116651670