24
charge=0, multiplicity=1, basis=def2-QZVPPD, AUX_BASIS_CORR=rimp2-def2-QZVPPD, SCF_ALGORITHM=GDM, xc_grid=000099000590, mem_total=30000, num_basis=1251, num_pairs=638009, num_threads=8
F  -1.9140740310  -1.1712080270  -0.1106727090
H  -2.1806647310  1.3989383080  -0.4093753690
C  0.3734465980  -0.7768563180  0.2130484340
C  -0.9011055530  -0.2957135110  -0.0383421680
C  -1.1785908410  1.0510758400  -0.2153173490
C  -0.1112153050  1.9305881580  -0.1277252540
C  1.1874384750  1.5173179040  0.1234824840
C  1.3942096630  0.1565847120  0.2903670810
F  -0.3466651860  3.2423284650  -0.2884200340
H  2.0004117880  2.2228561410  0.1892547240
H  0.5595389290  -1.8283336560  0.3602859180
F  2.6390061910  -0.2740213550  0.5412916430
H  -1.9739750720  -2.2328423100  3.2460039000
H  -2.4407365660  0.1905420620  3.0667428540
C  0.1363338580  -1.9627343150  3.5578747790
C  -1.1669852230  -1.5189506380  3.3392211470
C  -1.4296769010  -0.1537354060  3.2377144430
C  -0.3901265550  0.7674246750  3.3555102210
C  0.9129125550  0.3228358800  3.5735243840
C  1.1765831330  -1.0421647520  3.6752222480
H  -0.5942022690  1.8267395880  3.2759430540
H  1.7202341930  1.0371478300  3.6633772640
H  0.3401711560  -3.0219836950  3.6394629740
H  2.1881078750  -1.3860506750  3.8427650130