17
charge=0, multiplicity=1, basis=def2-QZVPPD, AUX_BASIS_CORR=rimp2-def2-QZVPPD, SCF_ALGORITHM=GDM, xc_grid=000099000590, mem_total=15000, num_basis=928, num_pairs=332822, num_threads=4
H  -0.0347688010  0.2945852080  0.0571875630
C  -0.0170143160  0.2619604100  1.1410502580
C  1.2012409910  0.2858241050  1.8200420200
C  1.2230511950  0.2492062240  3.2132563300
C  0.0279498880  0.1888586070  3.9279642600
C  -1.1896629290  0.1646422360  3.2503616620
C  -1.2129247540  0.2012649850  1.8569060080
H  2.1307071820  0.3326265200  1.2637807750
H  2.1699473230  0.2662735880  3.7407396010
H  0.0455706780  0.1588145980  5.0114828170
H  -2.1189620970  0.1162127970  3.8064703170
H  -2.1600185950  0.1836942200  1.3293788760
I  0.0020034160  -2.8389760250  1.7151511310
C  0.1047562920  -4.9567171600  1.8374116100
F  0.1338666230  -5.5004211760  0.6227628650
F  1.2008079170  -5.3403170560  2.4882655830
F  -0.9515075040  -5.4452445240  2.4835804520