25
charge=0, multiplicity=1, basis=def2-QZVPPD, AUX_BASIS_CORR=rimp2-def2-QZVPPD, SCF_ALGORITHM=GDM, xc_grid=000099000590, mem_total=30000, num_basis=1190, num_pairs=488280, num_threads=8
C  -0.2239130000  0.0021090000  0.1274040000
C  -0.2295540000  0.0012650000  1.5205720000
C  0.9660660000  -0.0021000000  2.2357290000
C  2.1764170000  -0.0046360000  1.5458880000
C  2.1940950000  -0.0038180000  0.1526230000
C  0.9921790000  -0.0004490000  -0.5522740000
Br  -1.8692370000  0.0046690000  2.4461860000
H  0.9465340000  -0.0027340000  3.3162520000
H  3.1047600000  -0.0072480000  2.1008040000
H  3.1354630000  -0.0057890000  -0.3787060000
H  0.9968800000  0.0002050000  -1.6338170000
H  -1.1590290000  0.0047150000  -0.4143030000
N  -4.3397437220  0.0032990520  3.8580800190
C  -5.1655637220  -1.0754259480  3.3499250190
C  -4.0469447220  -0.2033589480  5.2635420190
C  -4.9985277220  1.2804840520  3.6613970190
H  -4.9580597220  -0.2206419480  5.8824300190
H  -3.5254527220  -1.1502829480  5.3936840190
H  -3.4018017220  0.5959820520  5.6246780190
H  -5.9599457220  1.3417690520  4.1956280190
H  -4.3554667220  2.0832790520  4.0184280190
H  -5.1850067220  1.4369850520  2.6001490190
H  -6.1357957220  -1.1388839480  3.8677060190
H  -5.3525717220  -0.9246139480  2.2879340190
H  -4.6466397220  -2.0243709480  3.4752590190