8
charge=0, multiplicity=1, basis=def2-QZVPPD, AUX_BASIS_CORR=rimp2-def2-QZVPPD, SCF_ALGORITHM=GDM, xc_grid=000099000590, mem_total=3750, num_basis=360, num_pairs=61669, num_threads=1
F  0.3247382310  -0.0000961720  0.3675132430
H  0.1063565990  -0.0000156060  1.2745355950
O  -0.1588621680  0.0001406240  2.8919981920
H  -1.0025957280  -0.0000448170  3.3479670170
C  0.8903687530  0.0000138880  3.8557254010
H  1.8217587460  0.0000549050  3.3000001270
H  0.8578991270  0.8891638770  4.4835503520
H  0.8578685370  -0.8892659770  4.4833646720