7
charge=0, multiplicity=1, basis=def2-QZVPPD, AUX_BASIS_CORR=rimp2-def2-QZVPPD, SCF_ALGORITHM=GDM, xc_grid=000099000590, mem_total=3750, num_basis=353, num_pairs=54648, num_threads=1
C  -0.0292230000  -0.3043340000  -0.0441390000
Cl  -2.0382513710  -2.4725718070  -0.9157578290
Cl  -3.3406803710  -3.8792938070  -1.4803008290
H  -1.0139630000  0.1406250000  -0.1503900000
H  -0.0611900000  -1.0864630000  0.7083510000
H  0.6783040000  0.4596560000  0.2625350000
H  0.2860770000  -0.7245430000  -0.9944030000