5
charge=0, multiplicity=1, basis=def2-QZVPPD, AUX_BASIS_CORR=rimp2-def2-QZVPPD, SCF_ALGORITHM=GDM, xc_grid=000099000590, mem_total=3750, num_basis=195, num_pairs=19452, num_threads=1
C  -0.0833817470  0.0480571710  -1.1469371280
H  -0.1637520450  0.0934930990  -2.2284370400
H  -0.9421973560  -0.4769115230  -0.7409008570
H  0.8273594970  -0.4775531120  -0.8760645940
H  -0.0577801950  1.0548214020  -0.7422738110