8
charge=0, multiplicity=1, basis=def2-QZVPPD, AUX_BASIS_CORR=rimp2-def2-QZVPPD, SCF_ALGORITHM=GDM, xc_grid=000099000590, mem_total=3750, num_basis=392, num_pairs=71165, num_threads=1
Br  0.4307590460  -0.0001152150  -0.1079456070
H  0.0177504100  -0.0000138110  1.2599673530
O  -0.2144523020  0.0001523680  2.8497160160
H  -1.0061129370  -0.0000707770  3.3925837170
C  0.9230950160  -0.0000048610  3.7060510160
H  1.7964069900  0.0000680650  3.0615850300
H  0.9561173370  0.8888849320  4.3352713910
H  0.9560771140  -0.8890765860  4.3350152630