10
charge=0, multiplicity=1, basis=def2-QZVPPD, AUX_BASIS_CORR=rimp2-def2-QZVPPD, SCF_ALGORITHM=GDM, xc_grid=000099000590, mem_total=3750, num_basis=489, num_pairs=109601, num_threads=1
C  0.0000234110  0.0001057590  2.0532857350
F  -1.0825267150  0.6253399040  1.5898169680
F  1.0826276820  0.6252377640  1.5899222490
F  -0.0000238600  -1.2498202250  1.5892647530
H  -0.0000419600  -0.0002800620  3.1380920740
C  -0.0000070710  -0.0000557500  -1.4419789590
H  -0.0000006190  0.0001328220  -2.5275068890
H  -0.8856555420  -0.5115737600  -1.0786988380
H  0.8857305060  -0.5114187330  -1.0786884650
H  -0.0000984470  1.0225777000  -1.0784129280