9
charge=0, multiplicity=1, basis=def2-QZVPPD, AUX_BASIS_CORR=rimp2-def2-QZVPPD, SCF_ALGORITHM=GDM, xc_grid=000099000590, mem_total=3750, num_basis=448, num_pairs=83718, num_threads=1
C  -0.0955012800  -0.0911330310  -0.1413157050
I  1.8303958800  0.3969778390  0.6151652030
H  -0.1793977140  -1.1699116890  -0.1843364220
H  -0.8362898410  0.3238411640  0.5308545840
H  -0.1912595880  0.3407719520  -1.1297572700
O  4.5231471660  0.7827022690  1.2235557990
C  5.0990286440  0.1921788010  0.3359376600
H  6.1971420780  0.1523403700  0.2853090010
H  4.5505130360  -0.3317377370  -0.4609249900