8
charge=0, multiplicity=1, basis=def2-QZVPPD, AUX_BASIS_CORR=rimp2-def2-QZVPPD, SCF_ALGORITHM=GDM, xc_grid=000099000590, mem_total=3750, num_basis=385, num_pairs=69315, num_threads=1
I  0.4943607600  0.0001367280  -0.2991861470
H  -0.0268184510  0.0000098240  1.2277797220
O  -0.2998451510  -0.0002065920  3.2101831800
H  -1.0574905850  0.0000374430  3.7998381640
C  0.8817862910  -0.0000263260  4.0031390370
H  1.7197966840  -0.0001277390  3.3129250380
H  0.9510222350  0.8888967430  4.6299048960
H  0.9510692160  -0.8887200810  4.6302251090