22
charge=0, multiplicity=1, basis=def2-QZVPPD, AUX_BASIS_CORR=rimp2-def2-QZVPPD, SCF_ALGORITHM=GDM, xc_grid=000099000590, mem_total=15000, num_basis=1075, num_pairs=394894, num_threads=4
C  -0.4537437400  0.0001827390  1.0592003270
C  0.5839945720  -0.0000284020  1.9882448100
C  1.9111238080  -0.0001427600  1.5639517740
C  2.2000154620  -0.0000609480  0.2008571380
C  1.1718525560  0.0001516890  -0.7384667540
H  -1.4862763240  0.0002689750  1.3772406030
H  0.3513194240  -0.0001031420  3.0442910190
H  2.7128304380  -0.0002903900  2.2888377640
H  3.2272380820  -0.0001628560  -0.1368872630
H  1.3832747000  0.0002148940  -1.7979056340
C  -0.1498414590  0.0002810080  -0.2997998440
Cl  -1.4322883910  0.0005596970  -1.4664149830
O  -3.6673184950  0.0001582420  -3.5908112240
C  -4.8147353380  0.0019494100  -3.1836091210
C  -5.9738431500  -0.0005470930  -4.1580706360
C  -5.1029517040  0.0066764500  -1.6974576040
H  -5.8885088610  0.8733083250  -4.8015875990
H  -5.8895911720  -0.8786937270  -4.7958469310
H  -6.9439705180  0.0016430220  -3.6712263360
H  -6.1638160220  0.0080605030  -1.4674862550
H  -4.6332857940  -0.8671108580  -1.2489947260
H  -4.6321534030  0.8825743830  -1.2543504440