6
charge=0, multiplicity=1, basis=def2-QZVPPD, AUX_BASIS_CORR=rimp2-def2-QZVPPD, SCF_ALGORITHM=GDM, xc_grid=000099000590, mem_total=3750, num_basis=261, num_pairs=34660, num_threads=1
O  -0.1169880760  0.0001159580  2.6366249420
H  -0.9607216360  -0.0000694830  3.0925937670
C  0.9322428450  -0.0000107780  3.6003521510
H  1.8636328380  0.0000302390  3.0446268770
H  0.8997732190  0.8891392110  4.2281771020
H  0.8997426290  -0.8892906430  4.2279914220