22
charge=0, multiplicity=1, basis=def2-QZVPPD, AUX_BASIS_CORR=rimp2-def2-QZVPPD, SCF_ALGORITHM=GDM, xc_grid=000099000590, mem_total=15000, num_basis=1075, num_pairs=402323, num_threads=4
C  -0.4537437400  0.0001827390  1.0592003270
C  0.5839945720  -0.0000284020  1.9882448100
C  1.9111238080  -0.0001427600  1.5639517740
C  2.2000154620  -0.0000609480  0.2008571380
C  1.1718525560  0.0001516890  -0.7384667540
H  -1.4862763240  0.0002689750  1.3772406030
H  0.3513194240  -0.0001031420  3.0442910190
H  2.7128304380  -0.0002903900  2.2888377640
H  3.2272380820  -0.0001628560  -0.1368872630
H  1.3832747000  0.0002148940  -1.7979056340
C  -0.1498414590  0.0002810080  -0.2997998440
Cl  -1.4322883910  0.0005596970  -1.4664149830
O  -3.4320601800  0.0002004990  -3.3671981810
C  -4.5794770230  0.0019916670  -2.9599960780
C  -5.7385848350  -0.0005048360  -3.9344575930
C  -4.8676933890  0.0067187070  -1.4738445610
H  -5.6532505460  0.8733505820  -4.5779745560
H  -5.6543328570  -0.8786514700  -4.5722338880
H  -6.7087122030  0.0016852790  -3.4476132930
H  -5.9285577070  0.0081027600  -1.2438732120
H  -4.3980274790  -0.8670686010  -1.0253816830
H  -4.3968950880  0.8826166400  -1.0307374010