11
charge=0, multiplicity=1, basis=def2-QZVPPD, AUX_BASIS_CORR=rimp2-def2-QZVPPD, SCF_ALGORITHM=GDM, xc_grid=000099000590, mem_total=3750, num_basis=489, num_pairs=104197, num_threads=1
H  0.8551713350  -0.0000081190  -0.5887862610
O  0.2715460700  0.0000163570  0.1755925080
C  1.0840504480  0.0000018070  1.3352519900
H  0.4178316080  -0.0000024860  2.1929847640
H  1.7184895660  -0.8863129460  1.3980355250
H  1.7184985540  0.8863092360  1.3980504110
F  1.1064914710  0.0000033180  -2.4204368380
C  -0.2040030160  -0.0000023340  -2.8842764240
H  -0.1862942640  -0.0000026900  -3.9698387050
H  -0.7054637490  -0.8885809520  -2.5135976450
H  -0.7054708020  0.8885724570  -2.5135980700