5
charge=0, multiplicity=1, basis=def2-QZVPPD, AUX_BASIS_CORR=rimp2-def2-QZVPPD, SCF_ALGORITHM=GDM, xc_grid=000099000590, mem_total=3750, num_basis=228, num_pairs=26522, num_threads=1
C  -0.1716829620  0.0924970840  -1.5274701650
F  -0.3025391510  0.1956795290  -2.9008133970
H  -1.0228759700  -0.4501007010  -1.1267043690
H  0.7454011600  -0.4407331900  -1.2945902880
H  -0.1358828310  1.0882304430  -1.0953930800