24
charge=0, multiplicity=1, basis=def2-QZVPPD, AUX_BASIS_CORR=rimp2-def2-QZVPPD, SCF_ALGORITHM=GDM, xc_grid=000099000590, mem_total=60000, num_basis=1350, num_pairs=753997, num_threads=16
F  -2.2683284680  -1.9582028890  -0.3230250920
F  -2.7036905850  0.7255503830  -0.2531190400
C  0.0399704160  -1.6206490620  0.0006275290
C  -1.2467145680  -1.1223314570  -0.1581889560
C  -1.4689606320  0.2482816160  -0.1234482230
C  -0.4048431760  1.1201107250  0.0683217880
C  0.8828691600  0.6223035530  0.2232399940
C  1.1041642810  -0.7488420520  0.1922459860
F  -0.6201577410  2.4307327220  0.1130601070
F  1.9012322880  1.4564241700  0.3993774830
F  0.2508215280  -2.9338364850  -0.0101691250
F  2.3332238550  -1.2273905820  0.3547826790
H  -1.7442103980  -1.3034653440  2.6936620530
H  -2.1420651950  1.1411716410  2.7093544590
C  0.3845333070  -1.1163746350  2.9353218530
C  -0.9119583830  -0.6204319730  2.8006372100
C  -1.1361352350  0.7560020430  2.8113380480
C  -0.0643625920  1.6360479330  2.9581629240
C  1.2314263730  1.1397059910  3.0933878960
C  1.4561637950  -0.2361801760  3.0820265990
H  -0.2385949060  2.7033721680  2.9659179310
H  2.0626379300  1.8221990800  3.2049678310
H  0.5586861490  -2.1841705990  2.9292366620
H  2.4614356180  -0.6211798120  3.1856428420