25
charge=0, multiplicity=1, basis=def2-QZVPPD, AUX_BASIS_CORR=rimp2-def2-QZVPPD, SCF_ALGORITHM=GDM, xc_grid=000099000590, mem_total=30000, num_basis=1183, num_pairs=442136, num_threads=8
C  1.0372880000  0.0005390000  -0.5821020000
C  -0.1764870000  -0.0002710000  0.1027150000
C  -0.1831740000  -0.0005180000  1.4981330000
C  1.0198800000  0.0000400000  2.2051720000
C  2.2286160000  0.0008480000  1.5115050000
C  2.2417530000  0.0010960000  0.1182730000
I  -2.0040730000  -0.0016960000  2.5343770000
H  1.0131570000  -0.0001350000  3.2862440000
H  3.1591150000  0.0012790000  2.0632250000
H  3.1813980000  0.0017150000  -0.4164150000
H  1.0382830000  0.0007290000  -1.6638690000
H  -1.1093040000  -0.0006880000  -0.4437320000
N  -5.9039033710  -0.0021175090  4.7580220330
C  -6.7535593710  1.0329524910  4.1969160330
C  -6.5233753710  -1.3062335090  4.6040370330
C  -5.6319223710  0.2684244910  6.1583340330
H  -6.5505263710  0.2835104910  6.7644630330
H  -4.9683483710  -0.4974775090  6.5564290330
H  -5.1386893710  1.2342274910  6.2549760330
H  -7.7301923710  1.0873684910  4.7015870330
H  -6.2621383710  1.9999554910  4.2904870330
H  -6.9220273710  0.8343904910  3.1397520330
H  -7.4881403710  -1.3723545090  5.1297090330
H  -6.6913713710  -1.5087515090  3.5475630330
H  -5.8612023710  -2.0745795090  4.9996520330