9
charge=0, multiplicity=1, basis=def2-QZVPPD, AUX_BASIS_CORR=rimp2-def2-QZVPPD, SCF_ALGORITHM=GDM, xc_grid=000099000590, mem_total=3750, num_basis=554, num_pairs=122077, num_threads=1
C  0.0923484170  -0.0478994430  -0.0841806090
Br  1.8502951740  0.4017566020  0.5412153660
F  -0.0412484240  -1.3652315690  -0.1868344370
F  -0.8301221970  0.4034653070  0.7561547160
F  -0.1276850370  0.4896065790  -1.2783130380
O  4.3422372540  0.7900129570  1.1109836870
C  5.0318176070  0.1711922670  0.3296485410
H  6.1294015400  0.1890782870  0.3875593590
H  4.5924806660  -0.4377327420  -0.4744819550