12
charge=0, multiplicity=1, basis=def2-QZVPPD, AUX_BASIS_CORR=rimp2-def2-QZVPPD, SCF_ALGORITHM=GDM, xc_grid=000099000590, mem_total=7500, num_basis=634, num_pairs=188073, num_threads=2
C  1.0372880000  0.0005390000  -0.5821020000
C  -0.1764870000  -0.0002710000  0.1027150000
C  -0.1831740000  -0.0005180000  1.4981330000
C  1.0198800000  0.0000400000  2.2051720000
C  2.2286160000  0.0008480000  1.5115050000
C  2.2417530000  0.0010960000  0.1182730000
I  -2.0040730000  -0.0016960000  2.5343770000
H  1.0131570000  -0.0001350000  3.2862440000
H  3.1591150000  0.0012790000  2.0632250000
H  3.1813980000  0.0017150000  -0.4164150000
H  1.0382830000  0.0007290000  -1.6638690000
H  -1.1093040000  -0.0006880000  -0.4437320000