11
charge=0, multiplicity=1, basis=def2-QZVPPD, AUX_BASIS_CORR=rimp2-def2-QZVPPD, SCF_ALGORITHM=GDM, xc_grid=000099000590, mem_total=3750, num_basis=489, num_pairs=93011, num_threads=1
H  0.8551713350  -0.0000081190  -0.5887862610
O  0.2715460700  0.0000163570  0.1755925080
C  1.0840504480  0.0000018070  1.3352519900
H  0.4178316080  -0.0000024860  2.1929847640
H  1.7184895660  -0.8863129460  1.3980355250
H  1.7184985540  0.8863092360  1.3980504110
F  1.2740291670  0.0000109420  -3.6414711750
C  -0.0364653200  0.0000052900  -4.1053107610
H  -0.0187565680  0.0000049340  -5.1908730420
H  -0.5379260530  -0.8885733280  -3.7346319820
H  -0.5379331060  0.8885800810  -3.7346324070