6
charge=0, multiplicity=1, basis=def2-QZVPPD, AUX_BASIS_CORR=rimp2-def2-QZVPPD, SCF_ALGORITHM=GDM, xc_grid=000099000590, mem_total=3750, num_basis=261, num_pairs=34660, num_threads=1
O  -0.1679352570  0.0000053120  2.7176793940
H  -0.9801487040  -0.0000071560  3.2288973780
C  0.9368455990  -0.0000006790  3.6164306030
H  1.8334767470  -0.0000021970  3.0052654750
H  0.9452051390  0.8889796460  4.2460699350
H  0.9452007950  -0.8889833480  4.2460666680