3
charge=0, multiplicity=1, basis=def2-QZVPPD, AUX_BASIS_CORR=rimp2-def2-QZVPPD, SCF_ALGORITHM=GDM, xc_grid=000099000590, mem_total=3750, num_basis=132, num_pairs=9017, num_threads=1
O  1.5668364200  0.3051304740  -0.0057583520
H  2.0215146080  -0.0660116970  -0.7656885490
H  2.0215217050  -0.0669815190  0.7536975230