11
charge=0, multiplicity=1, basis=def2-QZVPPD, AUX_BASIS_CORR=rimp2-def2-QZVPPD, SCF_ALGORITHM=GDM, xc_grid=000099000590, mem_total=3750, num_basis=502, num_pairs=109845, num_threads=1
H  1.1013711460  -0.0001177390  -0.5877709960
O  0.3970902270  -0.0000275460  0.0678665260
C  1.0058292920  0.0000133340  1.3479306530
H  0.2050036050  -0.0000004300  2.0812970250
H  1.6201806820  -0.8866858050  1.5144960950
H  1.6201278340  0.8867561420  1.5144704940
Cl  1.5209409490  -0.0000040220  -2.9376031650
C  -0.2641579350  0.0000079800  -2.9486861000
H  -0.5939581350  0.0000143880  -3.9803151190
H  -0.6061820280  -0.8870598000  -2.4307440940
H  -0.6061722330  0.8870735990  -2.4307345540