9
charge=0, multiplicity=1, basis=def2-QZVPPD, AUX_BASIS_CORR=rimp2-def2-QZVPPD, SCF_ALGORITHM=GDM, xc_grid=000099000590, mem_total=3750, num_basis=535, num_pairs=116516, num_threads=1
C  0.2280873680  -0.0060273080  -0.1035120240
Cl  1.8088844520  0.6328066870  0.2914649940
F  0.3319593170  -1.2501325040  -0.5554963970
F  -0.5511677780  -0.0133394500  0.9694462080
F  -0.3509218150  0.7333357570  -1.0396515300
O  4.3438151850  1.1256283380  0.7290694420
C  4.8916454680  0.0950436530  0.4047848170
H  5.9825976010  -0.0271283420  0.4700718310
H  4.3242821680  -0.7697315030  0.0288413590