8
charge=0, multiplicity=1, basis=def2-QZVPPD, AUX_BASIS_CORR=rimp2-def2-QZVPPD, SCF_ALGORITHM=GDM, xc_grid=000099000590, mem_total=3750, num_basis=385, num_pairs=69735, num_threads=1
I  0.4943607600  0.0001367280  -0.2991861470
H  -0.0268184510  0.0000098240  1.2277797220
O  -0.2862074600  -0.0001957820  3.1111620720
H  -1.0438528940  0.0000482530  3.7008170560
C  0.8954239820  -0.0000155160  3.9041179290
H  1.7334343750  -0.0001169290  3.2139039300
H  0.9646599260  0.8889075530  4.5308837880
H  0.9647069070  -0.8887092710  4.5312040010