5
charge=0, multiplicity=1, basis=def2-QZVPPD, AUX_BASIS_CORR=rimp2-def2-QZVPPD, SCF_ALGORITHM=GDM, xc_grid=000099000590, mem_total=3750, num_basis=260, num_pairs=34037, num_threads=1
Br  -0.0276507930  -2.5852308110  1.7376296940
C  0.1009308190  -4.5127797580  1.8333614890
H  0.0322366160  -4.9088580920  0.8276049940
H  1.0543973140  -4.7675145100  2.2796562850
H  -0.7158299940  -4.8777588650  2.4439678230