17
charge=0, multiplicity=1, basis=def2-QZVPPD, AUX_BASIS_CORR=rimp2-def2-QZVPPD, SCF_ALGORITHM=GDM, xc_grid=000099000590, mem_total=15000, num_basis=836, num_pairs=286690, num_threads=4
H  0.0077081340  0.2142771330  0.0523255310
C  0.0103856220  0.2004738490  1.1336445710
C  1.2178780910  0.2461686360  1.8284320640
C  1.2212557770  0.2231832800  3.2217037550
C  0.0175040670  0.1544343650  3.9205261250
C  -1.1897948140  0.1083844280  3.2262234110
C  -1.1936207030  0.1314225120  1.8327372090
H  2.1520514760  0.2948290390  1.2858149700
H  2.1583588240  0.2551843680  3.7605835540
H  0.0204691860  0.1332775660  5.0017678380
H  -2.1237270100  0.0506291460  3.7683577320
H  -2.1301449160  0.0908919010  1.2935083740
Br  -0.0301932290  -2.7654082960  1.7466685630
C  0.0983883830  -4.6929572430  1.8424003580
H  0.0296941800  -5.0890355770  0.8366438630
H  1.0518548780  -4.9476919950  2.2886951540
H  -0.7183724300  -5.0579363500  2.4530066920