22
charge=0, multiplicity=1, basis=def2-QZVPPD, AUX_BASIS_CORR=rimp2-def2-QZVPPD, SCF_ALGORITHM=GDM, xc_grid=000099000590, mem_total=15000, num_basis=1087, num_pairs=397870, num_threads=4
C  -0.4360198700  -0.0000015030  1.0354072880
C  0.5897622060  -0.0000132140  1.9785000620
C  1.9222473120  -0.0000062010  1.5716955880
C  2.2282660340  -0.0000219720  0.2125691210
C  1.2110871380  -0.0000064050  -0.7401535800
H  -1.4692420300  -0.0000019500  1.3522246130
H  0.3431010910  -0.0000084250  3.0316296850
H  2.7146942280  0.0000115020  2.3070329180
H  3.2602613960  -0.0000265540  -0.1115515200
H  1.4507078080  -0.0000101080  -1.7939855220
C  -0.1204028240  0.0000221220  -0.3235759400
I  -1.6582241040  0.0002212030  -1.7380199700
O  -3.8925754430  -0.0001343230  -3.7638850790
C  -3.7432538260  0.0037806270  -4.9737997630
C  -2.3563823880  0.0139377890  -5.5768290200
C  -4.9467274930  -0.0015065260  -5.8902032900
H  -1.8236736140  0.8913395750  -5.2134603950
H  -1.8127137690  -0.8584741970  -5.2177004730
H  -2.3633132410  0.0165296610  -6.6621113110
H  -5.5589053750  0.8701374000  -5.6653996390
H  -5.5480069180  -0.8817588280  -5.6695713360
H  -4.6826827470  0.0026483160  -6.9428706960