10
charge=0, multiplicity=1, basis=def2-QZVPPD, AUX_BASIS_CORR=rimp2-def2-QZVPPD, SCF_ALGORITHM=GDM, xc_grid=000099000590, mem_total=3750, num_basis=456, num_pairs=85507, num_threads=1
C  0.2502113880  -0.1412612830  2.2783059520
F  0.0550155730  -0.0606885540  0.9115384240
H  1.1893102500  0.3429787950  2.5312751490
H  0.2828917740  -1.1871668590  2.5705255240
H  -0.5714435960  0.3585134970  2.7838640060
C  -0.2353640890  0.1329073320  -2.1535777160
F  -0.3662202780  0.2360897770  -3.5269209480
H  -1.0865570970  -0.4096904530  -1.7528119200
H  0.6817200330  -0.4003229420  -1.9206978390
H  -0.1995639580  1.1286406910  -1.7215006310