10
charge=0, multiplicity=1, basis=def2-QZVPPD, AUX_BASIS_CORR=rimp2-def2-QZVPPD, SCF_ALGORITHM=GDM, xc_grid=000099000590, mem_total=3750, num_basis=456, num_pairs=86803, num_threads=1
C  0.2502113880  -0.1412612830  2.2783059520
F  0.0550155730  -0.0606885540  0.9115384240
H  1.1893102500  0.3429787950  2.5312751490
H  0.2828917740  -1.1871668590  2.5705255240
H  -0.5714435960  0.3585134970  2.7838640060
C  -0.2196782470  0.1229535390  -1.9993558220
F  -0.3505344360  0.2261359840  -3.3726990540
H  -1.0708712550  -0.4196442460  -1.5985900260
H  0.6974058750  -0.4102767350  -1.7664759450
H  -0.1838781160  1.1186868980  -1.5672787370