7
charge=0, multiplicity=1, basis=def2-QZVPPD, AUX_BASIS_CORR=rimp2-def2-QZVPPD, SCF_ALGORITHM=GDM, xc_grid=000099000590, mem_total=3750, num_basis=377, num_pairs=52484, num_threads=1
C  -0.0326030000  -0.2453290000  -0.0359330000
I  -3.6577696680  -3.8772463690  -1.8195224930
I  -5.4326486680  -5.6542513690  -2.6923444930
H  -0.9805530000  0.2544810000  -0.2124680000
H  -0.1601280000  -1.0202260000  0.7143080000
H  0.6921930000  0.4801890000  0.3203570000
H  0.3283230000  -0.6855200000  -0.9608950000