13
charge=0, multiplicity=1, basis=def2-QZVPPD, AUX_BASIS_CORR=rimp2-def2-QZVPPD, SCF_ALGORITHM=GDM, xc_grid=000099000590, mem_total=3750, num_basis=549, num_pairs=147472, num_threads=1
N  -3.9223267720  0.0035200150  3.6195180200
C  -4.7504165530  -1.0740498120  3.1139535570
C  -3.6327270600  -0.2029673550  5.0251831980
C  -4.5836987950  1.2791844310  3.4251361610
H  -4.5459398630  -0.2198960140  5.6421494070
H  -3.1126971460  -1.1503568270  5.1575640430
H  -2.9890623260  0.5964622460  5.3886779860
H  -5.5452018390  1.3376056970  3.9608426560
H  -3.9428871150  2.0832964320  3.7831767330
H  -4.7728016950  1.4368606950  2.3645491520
H  -5.7203749110  -1.1352475350  3.6338796180
H  -4.9402101300  -0.9241494530  2.0523504600
H  -4.2338548860  -2.0241664300  3.2399614970