9
charge=0, multiplicity=1, basis=def2-QZVPPD, AUX_BASIS_CORR=rimp2-def2-QZVPPD, SCF_ALGORITHM=GDM, xc_grid=000099000590, mem_total=3750, num_basis=455, num_pairs=86152, num_threads=1
C  0.0815775460  -0.0795769680  -0.1222485070
Br  1.7965483230  0.3971285000  0.6296790050
H  0.0132555210  -1.1600161540  -0.1567798110
H  -0.6922672870  0.3314028930  0.5144884420
H  0.0181809330  0.3398277270  -1.1188955850
O  4.5525964340  0.8033427260  1.2779044510
C  5.0219980190  0.1974261080  0.3400728510
H  6.1091185670  0.1019511130  0.1976193520
H  4.3836548710  -0.2863091450  -0.4139623770