9
charge=0, multiplicity=1, basis=def2-QZVPPD, AUX_BASIS_CORR=rimp2-def2-QZVPPD, SCF_ALGORITHM=GDM, xc_grid=000099000590, mem_total=3750, num_basis=390, num_pairs=73956, num_threads=1
F  -0.0717290410  -0.1088554350  0.2606522320
H  -0.0032184880  -0.0105702130  1.2027832430
N  0.0477300140  0.0430556670  2.7439341530
H  1.0025444820  0.0756567090  3.0764145950
C  -0.6280979870  -1.1507438200  3.2682699630
H  -1.6509652790  -1.1646473320  2.9027560030
H  -0.1290880150  -2.0351460520  2.8824495010
H  -0.6460980500  -1.2076071720  4.3570939590
H  -0.4013705680  0.8786516650  3.0950773010