17
charge=0, multiplicity=1, basis=def2-QZVPPD, AUX_BASIS_CORR=rimp2-def2-QZVPPD, SCF_ALGORITHM=GDM, xc_grid=000099000590, mem_total=7500, num_basis=829, num_pairs=275396, num_threads=2
H  0.0221066680  0.3377200360  0.0443053760
C  0.0269193530  0.2971572560  1.1277932360
C  1.2324200090  0.3742853650  1.8232065010
C  1.2385053950  0.3183038500  3.2156362320
C  0.0394475080  0.1845409720  3.9132551700
C  -1.1662199610  0.1071134760  3.2186291520
C  -1.1729800380  0.1639134040  1.8255146930
H  2.1655324400  0.4743160670  1.2803101280
H  2.1766293610  0.3751311470  3.7561750760
H  0.0447169800  0.1370406600  4.9963805630
H  -2.0988616030  -0.0005628610  3.7609471210
H  -2.1107031070  0.1016046350  1.2846101130
I  -0.2130239630  -3.3200701180  1.8861318830
C  0.0614972960  -5.4234808180  1.8751123640
H  0.0659015160  -5.7571881260  0.8421890280
H  1.0103491050  -5.6414124930  2.3552803120
H  -0.7605739580  -5.8735764500  2.4227760510