10
charge=0, multiplicity=1, basis=def2-QZVPPD, AUX_BASIS_CORR=rimp2-def2-QZVPPD, SCF_ALGORITHM=GDM, xc_grid=000099000590, mem_total=3750, num_basis=453, num_pairs=100260, num_threads=1
O  -3.3680170890  0.0003910900  -3.2712145950
C  -4.5254841190  0.0299968520  -2.8921212340
C  -4.8512580020  0.0302872890  -1.4144553690
C  -5.6577932690  0.0670945090  -3.8956971510
H  -5.5324051890  0.9436393320  -4.5289270300
H  -5.5809835740  -0.8077771850  -4.5389207840
H  -6.6392806130  0.0916525610  -3.4331069640
H  -5.9173531350  0.0584043970  -1.2126509950
H  -4.4172723530  -0.8594321850  -0.9612081140
H  -4.3691108780  0.8894059470  -0.9509700210