10
charge=0, multiplicity=1, basis=def2-QZVPPD, AUX_BASIS_CORR=rimp2-def2-QZVPPD, SCF_ALGORITHM=GDM, xc_grid=000099000590, mem_total=3750, num_basis=482, num_pairs=94922, num_threads=1
C  0.3011521140  -0.1731180990  2.7644804350
Cl  -0.0248708340  -0.0775821320  1.0171611270
H  1.2475022520  0.3146026230  2.9646547080
H  0.3461311510  -1.2174421260  3.0488361430
H  -0.5017090160  0.3281855310  3.2913451520
C  -0.2130317010  0.1212216970  -1.9536329290
Cl  -0.3956882670  0.2406354630  -3.7201458640
H  -1.0620320570  -0.4204668830  -1.5540530870
H  0.7067620740  -0.4078927370  -1.7353753580
H  -0.1776050310  1.1221973500  -1.5407442690