9
charge=0, multiplicity=1, basis=def2-QZVPPD, AUX_BASIS_CORR=rimp2-def2-QZVPPD, SCF_ALGORITHM=GDM, xc_grid=000099000590, mem_total=3750, num_basis=403, num_pairs=74391, num_threads=1
Cl  -0.1072093790  -0.1673105420  -0.0200231040
H  0.0095302180  0.0081288870  1.3048178250
N  0.0935704480  0.0998383740  3.8206835660
H  1.0452399340  0.1212867290  4.1634394820
C  -0.5936013580  -1.1124780930  4.2812123370
H  -1.6073341190  -1.1098758040  3.8901844430
H  -0.0850950520  -1.9803342150  3.8703420410
H  -0.6356165170  -1.2106650800  5.3660145290
H  -0.3640667380  0.9268915360  4.1814753740