22
charge=0, multiplicity=1, basis=def2-QZVPPD, AUX_BASIS_CORR=rimp2-def2-QZVPPD, SCF_ALGORITHM=GDM, xc_grid=000099000590, mem_total=15000, num_basis=1094, num_pairs=367083, num_threads=4
C  1.2171198000  0.0000863520  -0.7372925310
C  2.2326878590  0.0001747170  0.2164999790
C  1.9252100870  0.0001301090  1.5754994530
C  0.5925121320  0.0001781320  1.9819578640
C  -0.4330491940  0.0000702500  1.0387667950
H  1.4483020070  -0.0000203180  -1.7927853600
H  3.2646334320  0.0001024320  -0.1070522770
H  2.7170939740  -0.0000231510  2.3112390590
H  0.3457074980  0.0001095070  3.0349333330
H  -1.4685014560  -0.0000932070  1.3475749700
C  -0.1110817250  -0.0001087360  -0.3168108440
Br  -1.4937559730  -0.0017477630  -1.6064628020
O  -5.0331860420  0.0022913340  -4.7502470400
C  -6.1906530720  0.0318970960  -4.3711536790
C  -6.5164269550  0.0321875330  -2.8934878140
C  -7.3229622220  0.0689947530  -5.3747295960
H  -7.1975741420  0.9455395760  -6.0079594750
H  -7.2461525270  -0.8058769410  -6.0179532290
H  -8.3044495660  0.0935528050  -4.9121394090
H  -7.5825220880  0.0603046410  -2.6916834400
H  -6.0824413060  -0.8575319410  -2.4402405590
H  -6.0342798310  0.8913061910  -2.4300024660