24
charge=0, multiplicity=1, basis=def2-QZVPPD, AUX_BASIS_CORR=rimp2-def2-QZVPPD, SCF_ALGORITHM=GDM, xc_grid=000099000590, mem_total=30000, num_basis=1251, num_pairs=662210, num_threads=8
F  -1.9140740310  -1.1712080270  -0.1106727090
H  -2.1806647310  1.3989383080  -0.4093753690
C  0.3734465980  -0.7768563180  0.2130484340
C  -0.9011055530  -0.2957135110  -0.0383421680
C  -1.1785908410  1.0510758400  -0.2153173490
C  -0.1112153050  1.9305881580  -0.1277252540
C  1.1874384750  1.5173179040  0.1234824840
C  1.3942096630  0.1565847120  0.2903670810
F  -0.3466651860  3.2423284650  -0.2884200340
H  2.0004117880  2.2228561410  0.1892547240
H  0.5595389290  -1.8283336560  0.3602859180
F  2.6390061910  -0.2740213550  0.5412916430
H  -1.8998600100  -2.2593584670  2.7654896890
H  -2.3666215040  0.1640259050  2.5862286430
C  0.2104489200  -1.9892504720  3.0773605680
C  -1.0928701610  -1.5454667950  2.8587069360
C  -1.3555618390  -0.1802515630  2.7572002320
C  -0.3160114930  0.7409085180  2.8749960100
C  0.9870276170  0.2963197230  3.0930101730
C  1.2506981950  -1.0686809090  3.1947080370
H  -0.5200872070  1.8002234310  2.7954288430
H  1.7943492550  1.0106316730  3.1828630530
H  0.4142862180  -3.0484998520  3.1589487630
H  2.2622229370  -1.4125668320  3.3622508020