8
charge=0, multiplicity=1, basis=def2-QZVPPD, AUX_BASIS_CORR=rimp2-def2-QZVPPD, SCF_ALGORITHM=GDM, xc_grid=000099000590, mem_total=3750, num_basis=360, num_pairs=57634, num_threads=1
F  0.3247382310  -0.0000961720  0.3675132430
H  0.1063565990  -0.0000156060  1.2745355950
O  -0.3124005080  0.0002310680  3.8283667740
H  -1.1561340680  0.0000456270  4.2843355990
C  0.7368304130  0.0001043320  4.7920939830
H  1.6682204060  0.0001453490  4.2363687090
H  0.7043607870  0.8892543210  5.4199189340
H  0.7043301970  -0.8891755330  5.4197332540