9
charge=0, multiplicity=1, basis=def2-QZVPPD, AUX_BASIS_CORR=rimp2-def2-QZVPPD, SCF_ALGORITHM=GDM, xc_grid=000099000590, mem_total=3750, num_basis=554, num_pairs=123604, num_threads=1
C  0.0923484170  -0.0478994430  -0.0841806090
Br  1.8502951740  0.4017566020  0.5412153660
F  -0.0412484240  -1.3652315690  -0.1868344370
F  -0.8301221970  0.4034653070  0.7561547160
F  -0.1276850370  0.4896065790  -1.2783130380
O  4.1956580950  0.7671752310  1.0774691990
C  4.8852384480  0.1483545410  0.2961340530
H  5.9828223810  0.1662405610  0.3540448710
H  4.4459015070  -0.4605704680  -0.5079964430