13
charge=0, multiplicity=1, basis=def2-QZVPPD, AUX_BASIS_CORR=rimp2-def2-QZVPPD, SCF_ALGORITHM=GDM, xc_grid=000099000590, mem_total=3750, num_basis=549, num_pairs=147292, num_threads=1
N  -3.9496774220  0.0035153520  3.6351572190
C  -4.7754974220  -1.0752096480  3.1270022190
C  -3.6568784220  -0.2031426480  5.0406192190
C  -4.6084614220  1.2807003520  3.4384742190
H  -4.5679934220  -0.2204256480  5.6595072190
H  -3.1353864220  -1.1500666480  5.1707612190
H  -3.0117354220  0.5961983520  5.4017552190
H  -5.5698794220  1.3419853520  3.9727052190
H  -3.9654004220  2.0834953520  3.7955052190
H  -4.7949404220  1.4372013520  2.3772262190
H  -5.7457294220  -1.1386676480  3.6447832190
H  -4.9625054220  -0.9243976480  2.0650112190
H  -4.2565734220  -2.0241546480  3.2523362190