25
charge=0, multiplicity=1, basis=def2-QZVPPD, AUX_BASIS_CORR=rimp2-def2-QZVPPD, SCF_ALGORITHM=GDM, xc_grid=000099000590, mem_total=30000, num_basis=1183, num_pairs=492283, num_threads=8
C  1.0372880000  0.0005390000  -0.5821020000
C  -0.1764870000  -0.0002710000  0.1027150000
C  -0.1831740000  -0.0005180000  1.4981330000
C  1.0198800000  0.0000400000  2.2051720000
C  2.2286160000  0.0008480000  1.5115050000
C  2.2417530000  0.0010960000  0.1182730000
I  -2.0040730000  -0.0016960000  2.5343770000
H  1.0131570000  -0.0001350000  3.2862440000
H  3.1591150000  0.0012790000  2.0632250000
H  3.1813980000  0.0017150000  -0.4164150000
H  1.0382830000  0.0007290000  -1.6638690000
H  -1.1093040000  -0.0006880000  -0.4437320000
N  -4.2140145210  -0.0019348590  3.7944639830
C  -5.0636705210  1.0331351410  3.2333579830
C  -4.8334865210  -1.3060508590  3.6404789830
C  -3.9420335210  0.2686071410  5.1947759830
H  -4.8606375210  0.2836931410  5.8009049830
H  -3.2784595210  -0.4972948590  5.5928709830
H  -3.4488005210  1.2344101410  5.2914179830
H  -6.0403035210  1.0875511410  3.7380289830
H  -4.5722495210  2.0001381410  3.3269289830
H  -5.2321385210  0.8345731410  2.1761939830
H  -5.7982515210  -1.3721718590  4.1661509830
H  -5.0014825210  -1.5085688590  2.5840049830
H  -4.1713135210  -2.0743968590  4.0360939830