22
charge=0, multiplicity=1, basis=def2-QZVPPD, AUX_BASIS_CORR=rimp2-def2-QZVPPD, SCF_ALGORITHM=GDM, xc_grid=000099000590, mem_total=15000, num_basis=1094, num_pairs=412577, num_threads=4
C  1.2171198000  0.0000863520  -0.7372925310
C  2.2326878590  0.0001747170  0.2164999790
C  1.9252100870  0.0001301090  1.5754994530
C  0.5925121320  0.0001781320  1.9819578640
C  -0.4330491940  0.0000702500  1.0387667950
H  1.4483020070  -0.0000203180  -1.7927853600
H  3.2646334320  0.0001024320  -0.1070522770
H  2.7170939740  -0.0000231510  2.3112390590
H  0.3457074980  0.0001095070  3.0349333330
H  -1.4685014560  -0.0000932070  1.3475749700
C  -0.1110817250  -0.0001087360  -0.3168108440
Br  -1.4937559730  -0.0017477630  -1.6064628020
O  -3.4851537360  0.0005247630  -3.3752574320
C  -4.6426207660  0.0301305250  -2.9961640710
C  -4.9683946490  0.0304209620  -1.5184982060
C  -5.7749299160  0.0672281820  -3.9997399880
H  -5.6495418360  0.9437730050  -4.6329698670
H  -5.6981202210  -0.8076435120  -4.6429636210
H  -6.7564172600  0.0917862340  -3.5371498010
H  -6.0344897820  0.0585380700  -1.3166938320
H  -4.5344090000  -0.8592985120  -1.0652509510
H  -4.4862475250  0.8895396200  -1.0550128580