9
charge=0, multiplicity=1, basis=def2-QZVPPD, AUX_BASIS_CORR=rimp2-def2-QZVPPD, SCF_ALGORITHM=GDM, xc_grid=000099000590, mem_total=3750, num_basis=390, num_pairs=73532, num_threads=1
F  -0.0717290410  -0.1088554350  0.2606522320
H  -0.0032184880  -0.0105702130  1.2027832430
N  0.0505603030  0.0460346890  2.8295480990
H  1.0053747710  0.0786357310  3.1620285410
C  -0.6252676980  -1.1477647980  3.3538839090
H  -1.6481349900  -1.1616683100  2.9883699490
H  -0.1262577260  -2.0321670300  2.9680634470
H  -0.6432677610  -1.2046281500  4.4427079050
H  -0.3985402790  0.8816306870  3.1806912470