25
charge=0, multiplicity=1, basis=def2-QZVPPD, AUX_BASIS_CORR=rimp2-def2-QZVPPD, SCF_ALGORITHM=GDM, xc_grid=000099000590, mem_total=30000, num_basis=1171, num_pairs=484132, num_threads=8
C  -0.2351640250  0.0020860930  0.1327551800
C  -0.2381776010  0.0011892850  1.5256036900
C  0.9558457520  -0.0021378870  2.2427231980
C  2.1654567110  -0.0046251360  1.5522517690
C  2.1828770350  -0.0037914850  0.1589768600
C  0.9810450160  -0.0004260790  -0.5460385720
Cl  -1.7489551250  0.0042604930  2.3784835470
H  0.9308225570  -0.0027633320  3.3229335400
H  3.0936525550  -0.0072174560  2.1071622490
H  3.1241126550  -0.0057457880  -0.3723131040
H  0.9855925310  0.0002535340  -1.6274667940
H  -1.1728802640  0.0046997470  -0.4040182940
N  -4.0581570720  0.0034737370  3.6970795750
C  -4.8862468530  -1.0740960900  3.1915151120
C  -3.7685573600  -0.2030136330  5.1027447530
C  -4.7195290950  1.2791381530  3.5026977160
H  -4.6817701630  -0.2199422920  5.7197109620
H  -3.2485274460  -1.1504031050  5.2351255980
H  -3.1248926260  0.5964159680  5.4662395410
H  -5.6810321390  1.3375594190  4.0384042110
H  -4.0787174150  2.0832501540  3.8607382880
H  -4.9086319950  1.4368144170  2.4421107070
H  -5.8562052110  -1.1352938130  3.7114411730
H  -5.0760404300  -0.9241957310  2.1299120150
H  -4.3696851860  -2.0242127080  3.3175230520