25
charge=0, multiplicity=1, basis=def2-QZVPPD, AUX_BASIS_CORR=rimp2-def2-QZVPPD, SCF_ALGORITHM=GDM, xc_grid=000099000590, mem_total=30000, num_basis=1183, num_pairs=488252, num_threads=8
C  1.0372880000  0.0005390000  -0.5821020000
C  -0.1764870000  -0.0002710000  0.1027150000
C  -0.1831740000  -0.0005180000  1.4981330000
C  1.0198800000  0.0000400000  2.2051720000
C  2.2286160000  0.0008480000  1.5115050000
C  2.2417530000  0.0010960000  0.1182730000
I  -2.0040730000  -0.0016960000  2.5343770000
H  1.0131570000  -0.0001350000  3.2862440000
H  3.1591150000  0.0012790000  2.0632250000
H  3.1813980000  0.0017150000  -0.4164150000
H  1.0382830000  0.0007290000  -1.6638690000
H  -1.1093040000  -0.0006880000  -0.4437320000
N  -4.3440059710  -0.0019489090  3.8685838330
C  -5.1936619710  1.0331210910  3.3074778330
C  -4.9634779710  -1.3060649090  3.7145988330
C  -4.0720249710  0.2685930910  5.2688958330
H  -4.9906289710  0.2836790910  5.8750248330
H  -3.4084509710  -0.4973089090  5.6669908330
H  -3.5787919710  1.2343960910  5.3655378330
H  -6.1702949710  1.0875370910  3.8121488330
H  -4.7022409710  2.0001240910  3.4010488330
H  -5.3621299710  0.8345590910  2.2503138330
H  -5.9282429710  -1.3721859090  4.2402708330
H  -5.1314739710  -1.5085829090  2.6581248330
H  -4.3013049710  -2.0744109090  4.1102138330