5
charge=0, multiplicity=1, basis=def2-QZVPPD, AUX_BASIS_CORR=rimp2-def2-QZVPPD, SCF_ALGORITHM=GDM, xc_grid=000099000590, mem_total=3750, num_basis=253, num_pairs=32411, num_threads=1
I  -0.3275199890  -2.5996224610  1.9212730170
C  -0.0529987300  -4.7030331610  1.9102534980
H  -0.0485945100  -5.0367404690  0.8773301620
H  0.8958530790  -4.9209648360  2.3904214460
H  -0.8750699840  -5.1531287930  2.4579171850