24
charge=0, multiplicity=1, basis=def2-QZVPPD, AUX_BASIS_CORR=rimp2-def2-QZVPPD, SCF_ALGORITHM=GDM, xc_grid=000099000590, mem_total=30000, num_basis=1251, num_pairs=653991, num_threads=8
F  -1.9140740310  -1.1712080270  -0.1106727090
H  -2.1806647310  1.3989383080  -0.4093753690
C  0.3734465980  -0.7768563180  0.2130484340
C  -0.9011055530  -0.2957135110  -0.0383421680
C  -1.1785908410  1.0510758400  -0.2153173490
C  -0.1112153050  1.9305881580  -0.1277252540
C  1.1874384750  1.5173179040  0.1234824840
C  1.3942096630  0.1565847120  0.2903670810
F  -0.3466651860  3.2423284650  -0.2884200340
H  2.0004117880  2.2228561410  0.1892547240
H  0.5595389290  -1.8283336560  0.3602859180
F  2.6390061910  -0.2740213550  0.5412916430
H  -1.9245859060  -2.2505122800  2.9257964340
H  -2.3913474000  0.1728720920  2.7465353880
C  0.1857230240  -1.9804042850  3.2376673130
C  -1.1175960570  -1.5366206080  3.0190136810
C  -1.3802877350  -0.1714053760  2.9175069770
C  -0.3407373890  0.7497547050  3.0353027550
C  0.9623017210  0.3051659100  3.2533169180
C  1.2259722990  -1.0598347220  3.3550147820
H  -0.5448131030  1.8090696180  2.9557355880
H  1.7696233590  1.0194778600  3.3431697980
H  0.3895603220  -3.0396536650  3.3192555080
H  2.2374970410  -1.4037206450  3.5225575470