17
charge=0, multiplicity=1, basis=def2-QZVPPD, mem_total=15000, AUX_BASIS_CORR=rimp2-def2-QZVPPD, SCF_ALGORITHM=GDM, xc_grid=000099000590, num_basis=829, num_pairs=286080, num_threads=4
H  0.0221066680  0.3377200360  0.0443053760
C  0.0269193530  0.2971572560  1.1277932360
C  1.2324200090  0.3742853650  1.8232065010
C  1.2385053950  0.3183038500  3.2156362320
C  0.0394475080  0.1845409720  3.9132551700
C  -1.1662199610  0.1071134760  3.2186291520
C  -1.1729800380  0.1639134040  1.8255146930
H  2.1655324400  0.4743160670  1.2803101280
H  2.1766293610  0.3751311470  3.7561750760
H  0.0447169800  0.1370406600  4.9963805630
H  -2.0988616030  -0.0005628610  3.7609471210
H  -2.1107031070  0.1016046350  1.2846101130
I  -0.3275199890  -2.5996224610  1.9212730170
C  -0.0529987300  -4.7030331610  1.9102534980
H  -0.0485945100  -5.0367404690  0.8773301620
H  0.8958530790  -4.9209648360  2.3904214460
H  -0.8750699840  -5.1531287930  2.4579171850