8
charge=0, multiplicity=1, basis=def2-QZVPPD, AUX_BASIS_CORR=rimp2-def2-QZVPPD, SCF_ALGORITHM=GDM, xc_grid=000099000590, mem_total=3750, num_basis=392, num_pairs=70762, num_threads=1
Br  0.4307590460  -0.0001152150  -0.1079456070
H  0.0177504100  -0.0000138110  1.2599673530
O  -0.2281104350  0.0001621430  2.9432248230
H  -1.0197710700  -0.0000610020  3.4860925240
C  0.9094368830  0.0000049140  3.7995598230
H  1.7827488570  0.0000778400  3.1550938370
H  0.9424592040  0.8888947070  4.4287801980
H  0.9424189810  -0.8890668110  4.4285240700