25
charge=0, multiplicity=1, basis=def2-QZVPPD, AUX_BASIS_CORR=rimp2-def2-QZVPPD, SCF_ALGORITHM=GDM, xc_grid=000099000590, mem_total=30000, num_basis=1171, num_pairs=470365, num_threads=8
C  -0.2351640250  0.0020860930  0.1327551800
C  -0.2381776010  0.0011892850  1.5256036900
C  0.9558457520  -0.0021378870  2.2427231980
C  2.1654567110  -0.0046251360  1.5522517690
C  2.1828770350  -0.0037914850  0.1589768600
C  0.9810450160  -0.0004260790  -0.5460385720
Cl  -1.7489551250  0.0042604930  2.3784835470
H  0.9308225570  -0.0027633320  3.3229335400
H  3.0936525550  -0.0072174560  2.1071622490
H  3.1241126550  -0.0057457880  -0.3723131040
H  0.9855925310  0.0002535340  -1.6274667940
H  -1.1728802640  0.0046997470  -0.4040182940
N  -4.4655611340  0.0033349320  3.9297146540
C  -5.2936509150  -1.0742348950  3.4241501910
C  -4.1759614220  -0.2031524380  5.3353798320
C  -5.1269331570  1.2789993480  3.7353327950
H  -5.0891742250  -0.2200810970  5.9523460410
H  -3.6559315080  -1.1505419100  5.4677606770
H  -3.5322966880  0.5962771630  5.6988746200
H  -6.0884362010  1.3374206140  4.2710392900
H  -4.4861214770  2.0831113490  4.0933733670
H  -5.3160360570  1.4366756120  2.6747457860
H  -6.2636092730  -1.1354326180  3.9440762520
H  -5.4834444920  -0.9243345360  2.3625470940
H  -4.7770892480  -2.0243515130  3.5501581310