8
charge=0, multiplicity=1, basis=def2-QZVPPD, AUX_BASIS_CORR=rimp2-def2-QZVPPD, SCF_ALGORITHM=GDM, xc_grid=000099000590, mem_total=3750, num_basis=385, num_pairs=63921, num_threads=1
I  0.4943607600  0.0001367280  -0.2991861470
H  -0.0268184510  0.0000098240  1.2277797220
O  -0.4363721450  -0.0003148110  4.2014839740
H  -1.1940175790  -0.0000707760  4.7911389580
C  0.7452592970  -0.0001345450  4.9944398310
H  1.5832696900  -0.0002359580  4.3042258320
H  0.8144952410  0.8887885240  5.6212056900
H  0.8145422220  -0.8888283000  5.6215259030