5
charge=0, multiplicity=1, basis=def2-QZVPPD, mem_total=3750, AUX_BASIS_CORR=rimp2-def2-QZVPPD, SCF_ALGORITHM=GDM, xc_grid=000099000590, num_basis=359, num_pairs=61931, num_threads=1
Br  -0.3699451830  -2.5271020690  2.0034339040
C  -0.0516193430  -4.4220905190  1.9383661250
F  -0.0226696750  -4.8453343800  0.6808265170
F  1.1103646610  -4.7168893450  2.5076394350
F  -1.0116066810  -5.0766403730  2.5796966920