11
charge=0, multiplicity=1, basis=def2-QZVPPD, AUX_BASIS_CORR=rimp2-def2-QZVPPD, SCF_ALGORITHM=GDM, xc_grid=000099000590, mem_total=3750, num_basis=489, num_pairs=105227, num_threads=1
H  0.8551713350  -0.0000081190  -0.5887862610
O  0.2715460700  0.0000163570  0.1755925080
C  1.0840504480  0.0000018070  1.3352519900
H  0.4178316080  -0.0000024860  2.1929847640
H  1.7184895660  -0.8863129460  1.3980355250
H  1.7184985540  0.8863092360  1.3980504110
F  1.0925299970  0.0000026830  -2.3186839770
C  -0.2179644900  -0.0000029690  -2.7825235630
H  -0.2002557380  -0.0000033250  -3.8680858440
H  -0.7194252230  -0.8885815870  -2.4118447840
H  -0.7194322760  0.8885718220  -2.4118452090