7
charge=0, multiplicity=1, basis=def2-QZVPPD, AUX_BASIS_CORR=rimp2-def2-QZVPPD, SCF_ALGORITHM=GDM, xc_grid=000099000590, mem_total=3750, num_basis=321, num_pairs=50478, num_threads=1
C  0.0000000000  0.0000000000  0.0000000000
B  0.0000000000  0.0000000000  1.4304300000
B  0.0000000000  0.0000000000  -1.4304300000
H  0.0000000000  1.0483470000  1.9934550000
H  0.0000000000  -1.0483470000  1.9934550000
H  0.0000000000  1.0483470000  -1.9934550000
H  0.0000000000  -1.0483470000  -1.9934550000