10
charge=0, multiplicity=1, basis=def2-QZVPPD, AUX_BASIS_CORR=rimp2-def2-QZVPPD, SCF_ALGORITHM=GDM, xc_grid=000099000590, mem_total=3750, num_basis=532, num_pairs=131991, num_threads=1
C  -0.1499300000  -1.0366670000  0.0000000000
S  0.5689550000  0.4243550000  0.0000000000
F  -0.1499300000  1.3095180000  1.1445480000
F  -0.1499300000  1.3095180000  -1.1445480000
B  -1.6788000000  -1.2010680000  0.0000000000
H  -2.1250400000  -2.3021090000  0.0000000000
H  -2.3960060000  -0.2526020000  0.0000000000
B  0.9394340000  -2.1060630000  0.0000000000
H  0.6194520000  -3.2503040000  0.0000000000
H  2.0934610000  -1.8003310000  0.0000000000