7
charge=0, multiplicity=1, basis=def2-QZVPPD, AUX_BASIS_CORR=rimp2-def2-QZVPPD, SCF_ALGORITHM=GDM, xc_grid=000099000590, mem_total=3750, num_basis=304, num_pairs=46179, num_threads=1
C  -0.0153270000  1.2005100000  0.0000000000
P  -0.0153270000  -0.4779510000  0.0000000000
H  0.2946210000  1.6716410000  0.9229480000
H  0.2946210000  1.6716410000  -0.9229480000
H  -0.6859050000  -1.0038300000  -1.1108240000
H  -0.6859050000  -1.0038300000  1.1108240000
H  1.1044300000  -1.3694190000  0.0000000000