12
charge=0, multiplicity=1, basis=def2-QZVPPD, AUX_BASIS_CORR=rimp2-def2-QZVPPD, SCF_ALGORITHM=GDM, xc_grid=000099000590, mem_total=3750, num_basis=532, num_pairs=135597, num_threads=1
C  -1.6078670000  -0.3174730000  0.3159200000
H  -2.3138890000  -0.8864690000  -0.2667300000
H  -1.6249890000  -0.3655270000  1.3967340000
S  -0.1669760000  -0.0657400000  -0.4569980000
C  1.2208070000  -1.0691820000  0.2151450000
C  0.4670280000  1.5035700000  0.1777100000
H  1.2459500000  -0.9451630000  1.2975460000
H  2.1654530000  -0.7615270000  -0.2335300000
H  0.9967650000  -2.1023800000  -0.0377970000
H  0.4431330000  1.4677530000  1.2662110000
H  -0.2033180000  2.2779340000  -0.1835380000
H  1.4827130000  1.6657330000  -0.1795910000