7
charge=0, multiplicity=1, basis=def2-QZVPPD, AUX_BASIS_CORR=rimp2-def2-QZVPPD, SCF_ALGORITHM=GDM, xc_grid=000099000590, mem_total=3750, num_basis=403, num_pairs=78244, num_threads=1
C  -0.4903830000  1.6635270000  0.0000000000
P  -0.0247640000  0.1161910000  0.0000000000
H  -0.5023390000  2.1937550000  0.9373580000
H  -0.5023390000  2.1937550000  -0.9373580000
F  -0.4903830000  -0.6987900000  -1.2332030000
F  -0.4903830000  -0.6987900000  1.2332030000
F  1.4605930000  -0.3925930000  0.0000000000