11
charge=0, multiplicity=1, basis=def2-QZVPPD, AUX_BASIS_CORR=rimp2-def2-QZVPPD, SCF_ALGORITHM=GDM, xc_grid=000099000590, mem_total=3750, num_basis=483, num_pairs=112607, num_threads=1
C  0.0000000000  0.2268320000  0.0000000000
N  0.0176380000  -1.2965800000  0.0000000000
B  -1.3623390000  0.8110820000  0.0000000000
B  1.3422050000  0.8637740000  0.0000000000
H  -0.9428030000  -1.6399340000  0.0000000000
H  0.4936460000  -1.6647680000  0.8206150000
H  0.4936460000  -1.6647680000  -0.8206150000
H  -1.5202960000  1.9912530000  0.0000000000
H  -2.3266570000  0.0803380000  0.0000000000
H  2.3420540000  0.1878160000  0.0000000000
H  1.4376120000  2.0508490000  0.0000000000