6
charge=0, multiplicity=1, basis=def2-QZVPPD, AUX_BASIS_CORR=rimp2-def2-QZVPPD, SCF_ALGORITHM=GDM, xc_grid=000099000590, mem_total=3750, num_basis=340, num_pairs=56669, num_threads=1
C  0.2700190000  1.5270210000  0.0000000000
H  -0.4272090000  2.3503660000  0.0000000000
H  1.3400880000  1.6589840000  0.0000000000
S  -0.4620830000  0.1174460000  0.0000000000
F  0.2700190000  -0.8361450000  1.1214970000
F  0.2700190000  -0.8361450000  -1.1214970000