16
charge=0, multiplicity=1, basis=def2-QZVPPD, mem_total=7500, AUX_BASIS_CORR=rimp2-def2-QZVPPD, SCF_ALGORITHM=GDM, xc_grid=000099000590, num_basis=678, num_pairs=223380, num_threads=2
C  0.5498190000  1.4691290000  0.0000000000
N  0.0188060000  0.0459230000  0.0000000000
H  0.0833570000  1.9280120000  0.8830860000
H  0.0833570000  1.9280120000  -0.8830860000
C  0.5498190000  -0.6334100000  1.2028750000
H  0.2243130000  -1.6742770000  1.2156770000
H  1.6312490000  -0.5501290000  1.1706220000
H  0.1742820000  -0.1088400000  2.0777600000
C  0.5498190000  -0.6334100000  -1.2028750000
H  0.2243130000  -1.6742770000  -1.2156770000
H  0.1742820000  -0.1088400000  -2.0777600000
H  1.6312490000  -0.5501290000  -1.1706220000
C  -1.4668550000  -0.0762310000  0.0000000000
H  -1.7755860000  -1.1247820000  0.0000000000
H  -1.8390380000  0.4286600000  0.8868140000
H  -1.8390380000  0.4286600000  -0.8868140000