10
charge=0, multiplicity=1, basis=def2-QZVPPD, AUX_BASIS_CORR=rimp2-def2-QZVPPD, SCF_ALGORITHM=GDM, xc_grid=000099000590, mem_total=3750, num_basis=466, num_pairs=104347, num_threads=1
C  0.0000000000  0.5897060000  0.0000000000
S  -0.0926650000  -1.1647020000  0.0000000000
B  1.3547720000  1.2351090000  0.0000000000
H  1.4276820000  2.4244900000  0.0000000000
H  2.3608190000  0.5783590000  0.0000000000
B  -1.3598220000  1.2223650000  0.0000000000
H  -1.4298310000  2.4125400000  0.0000000000
H  -2.3610990000  0.5638830000  0.0000000000
H  0.7551560000  -1.5848190000  0.9624040000
H  0.7551560000  -1.5848190000  -0.9624040000