4
charge=0, multiplicity=1, basis=def2-QZVPPD, AUX_BASIS_CORR=rimp2-def2-QZVPPD, SCF_ALGORITHM=GDM, xc_grid=000099000590, mem_total=3750, num_basis=274, num_pairs=37293, num_threads=1
P  0.0000000000  0.0000000000  0.5053380000
F  0.0000000000  1.3729200000  -0.2807430000
F  -1.1889840000  -0.6864600000  -0.2807430000
F  1.1889840000  -0.6864600000  -0.2807430000