16
charge=0, multiplicity=1, basis=def2-QZVPPD, mem_total=7500, AUX_BASIS_CORR=rimp2-def2-QZVPPD, SCF_ALGORITHM=GDM, xc_grid=000099000590, num_basis=724, num_pairs=238419, num_threads=2
C  -0.1346740000  -1.1363360000  0.0000000000
S  0.6210510000  0.4396630000  0.0000000000
C  -0.1346740000  1.3530500000  1.3574320000
C  -0.1346740000  1.3530500000  -1.3574320000
H  -1.2159790000  1.2813100000  1.2634180000
H  0.2039780000  2.3869910000  1.3206390000
H  0.1994450000  0.8749620000  2.2745340000
H  -1.2159790000  1.2813100000  -1.2634180000
H  0.1994450000  0.8749620000  -2.2745340000
H  0.2039780000  2.3869910000  -1.3206390000
B  0.8543330000  -2.2672300000  0.0000000000
H  2.0366860000  -2.0650610000  0.0000000000
H  0.4468000000  -3.3891100000  0.0000000000
B  -1.6309300000  -1.2340520000  0.0000000000
H  -2.3479210000  -0.2668430000  0.0000000000
H  -2.1401550000  -2.3122930000  0.0000000000