13
charge=0, multiplicity=1, basis=def2-QZVPPD, AUX_BASIS_CORR=rimp2-def2-QZVPPD, SCF_ALGORITHM=GDM, xc_grid=000099000590, mem_total=3750, num_basis=562, num_pairs=150306, num_threads=1
P  0.0000000000  0.0000000000  0.6113400000
C  0.0000000000  1.6155210000  -0.2824010000
C  -1.3990820000  -0.8077610000  -0.2824010000
C  1.3990820000  -0.8077610000  -0.2824010000
H  0.0000000000  1.4706710000  -1.3648520000
H  -0.8820110000  2.1894050000  0.0012770000
H  0.8820110000  2.1894050000  0.0012770000
H  1.2736390000  -0.7353360000  -1.3648520000
H  2.3370860000  -0.3308590000  0.0012770000
H  1.4550750000  -1.8585470000  0.0012770000
H  -1.2736390000  -0.7353360000  -1.3648520000
H  -1.4550750000  -1.8585470000  0.0012770000
H  -2.3370860000  -0.3308590000  0.0012770000