16
charge=0, multiplicity=1, basis=def2-QZVPPD, mem_total=7500, AUX_BASIS_CORR=rimp2-def2-QZVPPD, SCF_ALGORITHM=GDM, xc_grid=000099000590, num_basis=691, num_pairs=222392, num_threads=2
C  1.8091840000  0.2601900000  0.0000000000
P  0.1508710000  0.0015580000  0.0000000000
H  2.3382720000  0.0620890000  0.9236800000
H  2.3382720000  0.0620890000  -0.9236800000
C  -0.6132820000  0.7513700000  -1.4639640000
C  -0.6132820000  0.7513700000  1.4639640000
C  -0.6132820000  -1.6767520000  0.0000000000
H  -1.6803840000  0.5374210000  -1.5002280000
H  -0.4414830000  1.8248670000  -1.4428530000
H  -0.1350940000  0.3362960000  -2.3508760000
H  -1.7036810000  -1.6333790000  0.0000000000
H  -0.2690180000  -2.2142000000  -0.8834160000
H  -0.2690180000  -2.2142000000  0.8834160000
H  -1.6803840000  0.5374210000  1.5002280000
H  -0.1350940000  0.3362960000  2.3508760000
H  -0.4414830000  1.8248670000  1.4428530000