4
charge=0, multiplicity=1, basis=def2-QZVPPD, AUX_BASIS_CORR=rimp2-def2-QZVPPD, SCF_ALGORITHM=GDM, xc_grid=000099000590, mem_total=3750, num_basis=261, num_pairs=34291, num_threads=1
N  0.0000000000  0.0000000000  0.4830430000
F  0.0000000000  1.2275920000  -0.1252330000
F  -1.0631260000  -0.6137960000  -0.1252330000
F  1.0631260000  -0.6137960000  -0.1252330000