7
charge=0, multiplicity=1, basis=def2-QZVPPD, AUX_BASIS_CORR=rimp2-def2-QZVPPD, SCF_ALGORITHM=GDM, xc_grid=000099000590, mem_total=3750, num_basis=390, num_pairs=74692, num_threads=1
C  0.4792020000  1.4098200000  0.0000000000
N  0.1449980000  0.1473280000  0.0000000000
H  0.4423390000  1.8949430000  0.9581480000
H  0.4423390000  1.8949430000  -0.9581480000
F  0.4792020000  -0.5675500000  -1.1036550000
F  -1.4889470000  -0.3404680000  0.0000000000
F  0.4792020000  -0.5675500000  1.1036550000